BEGIN Configuration File: examples/focusconfig
topology = mesh;
k = 16;
n = 2;

sim_type = throughput;

packet_size = 1;
warmup_periods = 1;
// sample_period = 30000;
// max_samples = 20;

sample_period = 10000;
max_samples = 5;

burst_alpha = 0.5;
burst_beta = -1.0;

sim_power = 1;
channel_width = 256;

// Routing
routing_function = dim_order;
// routing_function = min_adapt;

// routing_function = xy_yx;
// routing_function = romm;


// Flow control
num_vcs = 2;
// num_vcs = 8;
vc_buf_size = 2;

// Traffic
traffic = focus;
injection_process = focus;

END Configuration File: examples/focusconfig
0 0
1 0
2 0
3 0
4 0
5 0
6 0
7 0
8 0
9 0
10 0
11 0
12 0
13 0
14 0
15 0
16 0
17 0
18 0
19 0
20 0
21 0
22 0
23 0
24 0
25 0
26 0
27 0
28 0
29 0
30 0
31 0
32 0
33 0
34 0
35 0
36 0
37 0
38 0
39 0
40 0
41 0
42 0
43 0
44 0
45 0
46 0
47 0
48 0
49 0
50 0
51 0
52 0
53 0
54 0
55 0
56 0
57 0
58 0
59 0
60 0
61 0
62 0
63 0
64 0
65 0
66 0
67 0
68 36
69 36
70 36
71 36
72 36
73 36
74 36
75 36
76 36
77 36
78 36
79 36
80 35
81 34
82 34
83 34
84 34
85 26
86 18
87 18
88 17
89 17
90 8
91 5
92 5
93 5
94 5
95 3
96 3
97 3
98 3
99 3
100 3
101 3
102 3
103 3
104 3
105 3
106 3
107 3
108 3
109 3
110 2
111 1
112 1
113 1
114 1
115 0
116 0
117 0
118 0
119 0
120 0
121 0
122 0
123 0
124 0
125 0
126 0
127 0
128 0
129 0
130 0
131 0
132 0
133 0
134 0
135 36
136 36
137 36
138 36
139 36
140 36
141 36
142 36
143 36
144 36
145 36
146 36
147 35
148 34
149 34
150 34
151 34
152 26
153 18
154 18
155 279
156 279
157 270
158 267
159 267
160 267
161 267
162 265
163 265
164 265
165 265
166 265
167 265
168 265
169 265
170 265
171 265
172 265
173 265
174 265
175 265
176 265
177 264
178 263
179 263
180 263
181 263
182 262
183 262
184 262
185 262
186 262
187 261
188 260
189 260
190 260
191 260
192 258
193 256
194 256
195 256
196 256
197 254
198 252
199 252
200 252
201 252
202 283
203 281
204 281
205 281
206 281
207 279
208 277
209 277
210 277
211 277
212 276
213 274
214 273
215 271
216 271
217 270
218 268
219 260
220 252
221 251
222 250
223 248
224 239
225 235
226 234
227 234
228 232
229 230
230 228
231 228
232 228
233 226
234 226
235 224
236 224
237 224
238 222
239 222
240 220
241 220
242 220
243 218
244 218
245 216
246 216
247 216
248 214
249 214
250 212
251 212
252 212
253 210
254 213
255 211
256 211
257 211
258 209
259 212
260 210
261 210
262 210
263 208
264 208
265 206
266 205
267 204
268 202
269 235
270 233
271 231
272 230
273 228
274 228
275 226
276 225
277 225
278 223
279 223
280 221
281 220
282 219
283 217
284 217
285 215
286 207
287 199
288 198
289 196
290 194
291 185
292 182
293 181
294 180
295 178
296 176
297 176
298 175
299 174
300 172
301 172
302 172
303 171
304 170
305 168
306 168
307 168
308 167
309 166
310 164
311 164
312 164
313 163
314 162
315 160
316 160
317 160
318 159
319 158
320 156
321 156
322 156
323 155
324 154
325 152
326 152
327 152
328 151
329 150
330 148
331 148
332 148
333 147
334 146
335 144
336 177
337 177
338 176
339 175
340 173
341 173
342 173
343 172
344 171
345 169
346 169
347 169
348 167
349 165
350 164
351 163
352 163
353 154
354 146
355 144
356 142
357 142
358 133
359 129
360 128
361 126
362 126
363 124
364 122
365 122
366 120
367 120
368 120
369 118
370 118
371 116
372 116
373 116
374 114
375 114
376 112
377 112
378 112
379 110
380 110
381 108
382 108
383 108
384 106
385 106
386 104
387 104
388 104
389 102
390 102
391 100
392 100
393 100
394 98
395 98
396 96
397 96
398 96
399 94
400 94
401 92
402 92
403 125
404 123
405 123
406 121
407 121
408 121
409 119
410 119
411 117
412 117
413 117
414 115
415 114
416 111
417 111
418 111
419 109
420 101
421 92
422 91
423 90
424 88
425 79
426 75
427 74
428 74
429 72
430 70
431 68
432 68
433 68
434 66
435 66
436 64
437 64
438 64
439 62
440 62
441 60
442 60
443 60
444 58
445 58
446 56
447 56
448 56
449 54
450 54
451 52
452 52
453 52
454 50
455 50
456 48
457 48
458 48
459 46
460 46
461 44
462 44
463 44
464 42
465 42
466 40
467 40
468 40
469 38
470 71
471 69
472 69
473 69
474 67
475 67
476 65
477 65
478 65
479 63
480 63
481 61
482 60
483 59
484 57
485 57
486 55
487 47
488 39
489 38
490 36
491 34
492 25
493 22
494 152
495 151
496 280
497 278
498 278
499 277
500 276
501 274
502 274
503 274
504 273
505 272
506 270
507 270
508 270
509 269
510 268
511 266
512 266
513 266
514 265
515 264
516 263
517 263
518 263
519 262
520 262
521 262
522 262
523 262
524 262
525 262
526 262
527 262
528 261
529 260
530 260
531 259
532 258
533 257
534 256
535 256
536 255
537 287
538 286
539 285
540 285
541 284
542 283
543 282
544 281
545 281
546 280
547 279
548 278
549 276
550 275
551 274
552 274
553 272
554 264
555 256
556 254
557 253
558 251
559 242
560 238
561 237
562 237
563 235
564 233
565 232
566 231
567 231
568 229
569 229
570 228
571 227
572 227
573 225
574 225
575 224
576 223
577 223
578 221
579 221
580 220
581 219
582 219
583 217
584 217
585 216
586 215
587 215
588 213
589 213
590 212
591 211
592 211
593 209
594 209
595 211
596 210
597 210
598 211
599 211
600 210
601 209
602 209
603 207
604 240
605 239
606 238
607 237
608 234
609 234
610 232
611 230
612 229
613 227
614 227
615 225
616 223
617 222
618 220
619 220
620 219
621 211
622 203
623 201
624 199
625 198
626 189
627 185
628 184
629 183
630 182
631 180
632 179
633 178
634 177
635 176
636 176
637 175
638 174
639 173
640 172
641 172
642 171
643 170
644 169
645 168
646 168
647 167
648 166
649 165
650 164
651 164
652 163
653 162
654 161
655 160
656 160
657 159
658 158
659 157
660 156
661 156
662 155
663 154
664 153
665 152
666 152
667 151
668 150
669 149
670 148
671 181
672 180
673 179
674 178
675 177
676 177
677 176
678 175
679 174
680 173
681 173
682 172
683 170
684 169
685 167
686 167
687 166
688 158
689 150
690 148
691 146
692 145
693 136
694 132
695 131
696 130
697 129
698 127
699 126
700 125
701 124
702 123
703 123
704 122
705 121
706 120
707 119
708 119
709 118
710 117
711 116
712 115
713 115
714 114
715 113
716 112
717 111
718 111
719 110
720 109
721 108
722 107
723 107
724 106
725 105
726 104
727 103
728 103
729 102
730 101
731 100
732 99
733 99
734 98
735 97
736 96
737 95
738 128
739 127
740 126
741 125
742 124
743 124
744 123
745 122
746 121
747 120
748 120
749 119
750 117
751 115
752 114
753 114
754 113
755 105
756 97
757 95
758 93
759 92
760 83
761 78
762 78
763 77
764 76
765 74
766 72
767 72
768 71
769 70
770 70
771 68
772 68
773 67
774 66
775 66
776 64
777 64
778 63
779 62
780 62
781 60
782 60
783 59
784 58
785 58
786 56
787 56
788 55
789 54
790 54
791 52
792 52
793 51
794 50
795 50
796 48
797 48
798 47
799 46
800 46
801 44
802 44
803 43
804 42
805 75
806 73
807 73
808 72
809 71
810 71
811 69
812 69
813 68
814 67
815 67
816 65
817 64
818 63
819 61
820 61
821 59
822 51
823 43
824 41
825 40
826 38
827 29
828 26
829 24
830 24
831 22
832 20
833 20
834 149
835 149
836 278
837 278
838 278
839 276
840 276
841 274
842 274
843 274
844 272
845 272
846 270
847 270
848 270
849 268
850 268
851 266
852 266
853 266
854 264
855 264
856 262
857 261
858 261
859 260
860 260
861 259
862 258
863 258
864 258
865 258
866 257
867 256
868 256
869 256
870 256
871 255
872 287
873 287
874 287
875 287
876 286
877 285
878 284
879 283
880 283
881 282
882 281
883 280
884 278
885 277
886 276
887 275
888 274
889 265
890 258
891 256
892 254
893 253
894 244
895 240
896 239
897 238
898 237
899 235
900 234
901 233
902 232
903 231
904 231
905 230
906 229
907 228
908 227
909 227
910 226
911 225
912 224
913 223
914 223
915 222
916 221
917 220
918 219
919 219
920 218
921 217
922 216
923 218
924 218
925 217
926 216
927 215
928 214
929 214
930 213
931 212
932 211
933 210
934 210
935 208
936 206
937 205
938 204
939 237
940 235
941 234
942 233
943 232
944 232
945 231
946 230
947 229
948 228
949 228
950 227
951 226
952 225
953 223
954 222
955 222
956 213
957 204
958 203
959 201
960 201
961 191
962 187
963 186
964 185
965 185
966 182
967 181
968 180
969 179
970 179
971 178
972 177
973 176
974 175
975 175
976 174
977 173
978 172
979 171
980 171
981 170
982 169
983 168
984 167
985 167
986 166
987 165
988 164
989 163
990 163
991 162
992 161
993 160
994 159
995 159
996 158
997 157
998 156
999 155
1000 155
1001 154
1002 153
1003 152
1004 151
1005 151
1006 183
1007 182
1008 181
1009 180
1010 180
1011 179
1012 178
1013 177
1014 176
1015 176
1016 175
1017 174
1018 172
1019 171
1020 170
1021 169
1022 168
1023 159
1024 151
1025 150
1026 149
1027 147
1028 138
1029 133
1030 133
1031 133
1032 131
1033 129
1034 127
1035 127
1036 127
1037 125
1038 125
1039 123
1040 123
1041 123
1042 121
1043 121
1044 119
1045 119
1046 119
1047 117
1048 117
1049 115
1050 115
1051 115
1052 113
1053 113
1054 111
1055 111
1056 111
1057 109
1058 109
1059 107
1060 107
1061 107
1062 105
1063 105
1064 103
1065 103
1066 103
1067 101
1068 101
1069 99
1070 99
1071 99
1072 97
1073 130
1074 128
1075 128
1076 128
1077 126
1078 126
1079 124
1080 124
1081 124
1082 122
1083 122
1084 120
1085 119
1086 118
1087 116
1088 116
1089 115
1090 106
1091 98
1092 96
1093 95
1094 94
1095 84
1096 81
1097 79
1098 79
1099 78
1100 75
1101 75
1102 73
1103 73
1104 72
1105 71
1106 71
1107 69
1108 69
1109 68
1110 67
1111 67
1112 65
1113 65
1114 64
1115 63
1116 63
1117 61
1118 61
1119 60
1120 59
1121 59
1122 57
1123 57
1124 56
1125 55
1126 55
1127 53
1128 53
1129 52
1130 51
1131 51
1132 49
1133 49
1134 48
1135 47
1136 47
1137 45
1138 45
1139 44
1140 76
1141 76
1142 74
1143 74
1144 73
1145 72
1146 72
1147 70
1148 70
1149 69
1150 68
1151 68
1152 66
1153 65
1154 64
1155 62
1156 62
1157 53
1158 45
1159 44
1160 42
1161 41
1162 32
1163 27
1164 27
1165 26
1166 25
1167 23
1168 21
1169 152
1170 151
1171 150
1172 150
1173 148
1174 148
1175 147
1176 146
1177 146
1178 144
1179 144
1180 274
1181 273
1182 273
1183 271
1184 271
1185 271
1186 269
1187 268
1188 267
1189 267
1190 267
1191 265
1192 264
1193 263
1194 263
1195 263
1196 261
1197 260
1198 259
1199 259
1200 259
1201 257
1202 256
1203 255
1204 255
1205 255
1206 253
1207 285
1208 285
1209 285
1210 285
1211 284
1212 283
1213 283
1214 283
1215 283
1216 282
1217 280
1218 279
1219 278
1220 277
1221 276
1222 275
1223 274
1224 266
1225 258
1226 256
1227 254
1228 253
1229 244
1230 240
1231 239
1232 238
1233 237
1234 235
1235 234
1236 233
1237 232
1238 231
1239 231
1240 230
1241 229
1242 228
1243 227
1244 227
1245 226
1246 225
1247 224
1248 223
1249 223
1250 222
1251 221
1252 220
1253 222
1254 222
1255 221
1256 220
1257 219
1258 218
1259 218
1260 217
1261 216
1262 215
1263 214
1264 214
1265 212
1266 210
1267 209
1268 208
1269 208
1270 206
1271 205
1272 204
1273 203
1274 236
1275 235
1276 234
1277 233
1278 232
1279 232
1280 231
1281 230
1282 229
1283 228
1284 231
1285 230
1286 228
1287 226
1288 225
1289 225
1290 224
1291 216
1292 208
1293 206
1294 204
1295 203
1296 193
1297 188
1298 187
1299 186
1300 185
1301 182
1302 181
1303 180
1304 179
1305 178
1306 178
1307 177
1308 176
1309 175
1310 174
1311 174
1312 173
1313 172
1314 171
1315 170
1316 170
1317 169
1318 168
1319 167
1320 166
1321 166
1322 165
1323 164
1324 163
1325 162
1326 162
1327 161
1328 160
1329 159
1330 158
1331 158
1332 157
1333 156
1334 155
1335 154
1336 154
1337 153
1338 152
1339 151
1340 150
1341 150
1342 149
1343 148
1344 147
1345 146
1346 146
1347 145
1348 144
1349 143
1350 142
1351 142
1352 141
1353 140
1354 139
1355 138
1356 138
1357 137
1358 136
1359 135
1360 134
1361 134
1362 133
1363 132
1364 131
1365 130
1366 130
1367 129
1368 128
1369 127
1370 126
1371 126
1372 125
1373 124
1374 123
1375 122
1376 122
1377 121
1378 120
1379 119
1380 118
1381 118
1382 117
1383 116
1384 115
1385 114
1386 114
1387 113
1388 112
1389 111
1390 110
1391 110
1392 109
1393 108
1394 107
1395 106
1396 106
1397 105
1398 104
1399 103
1400 102
1401 102
1402 101
1403 100
1404 99
1405 98
1406 98
1407 97
1408 96
1409 95
1410 94
1411 94
1412 93
1413 92
1414 91
1415 90
1416 90
1417 89
1418 88
1419 87
1420 86
1421 86
1422 85
1423 84
1424 83
1425 82
1426 82
1427 81
1428 80
1429 79
1430 78
1431 78
1432 77
1433 76
1434 75
1435 74
1436 74
1437 73
1438 72
1439 71
1440 70
1441 70
1442 69
1443 68
1444 67
1445 66
1446 66
1447 65
1448 64
1449 63
1450 62
1451 62
1452 61
1453 60
1454 59
1455 58
1456 58
1457 57
1458 56
1459 55
1460 54
1461 54
1462 53
1463 52
1464 51
1465 50
1466 50
1467 49
1468 48
1469 47
1470 46
1471 46
1472 45
1473 44
1474 43
1475 42
1476 42
1477 41
1478 40
1479 39
1480 38
1481 38
1482 37
1483 36
1484 35
1485 34
1486 34
1487 33
1488 32
1489 31
1490 30
1491 30
1492 29
1493 28
1494 27
1495 26
1496 26
1497 25
1498 24
1499 23
1500 22
1501 153
1502 152
1503 151
1504 150
1505 149
1506 149
1507 148
1508 147
1509 146
1510 145
1511 145
1512 144
1513 143
1514 143
1515 142
1516 142
1517 142
1518 141
1519 141
1520 271
1521 271
1522 271
1523 269
1524 268
1525 267
1526 267
1527 267
1528 265
1529 264
1530 263
1531 263
1532 263
1533 261
1534 260
1535 259
1536 259
1537 259
1538 257
1539 256
1540 255
1541 255
1542 255
1543 253
1544 252
1545 252
1546 252
1547 252
1548 251
1549 250
1550 250
1551 250
1552 249
1553 247
1554 246
1555 246
1556 246
1557 245
1558 243
1559 242
1560 242
1561 242
1562 241
1563 239
1564 238
1565 238
1566 238
1567 237
1568 235
1569 234
1570 234
1571 234
1572 233
1573 231
1574 230
1575 230
1576 230
1577 229
1578 227
1579 226
1580 226
1581 226
1582 225
1583 223
1584 222
1585 222
1586 222
1587 221
1588 219
1589 218
1590 221
1591 221
1592 220
1593 218
1594 217
1595 217
1596 217
1597 216
1598 214
1599 213
1600 213
1601 213
1602 211
1603 208
1604 207
1605 207
1606 207
1607 205
1608 203
1609 202
1610 202
1611 202
1612 201
1613 199
1614 198
1615 198
1616 198
1617 197
1618 195
1619 197
1620 197
1621 197
1622 196
1623 194
1624 193
1625 193
1626 193
1627 192
1628 190
1629 189
1630 189
1631 188
1632 186
1633 184
1634 183
1635 183
1636 182
1637 181
1638 179
1639 178
1640 178
1641 178
1642 177
1643 175
1644 174
1645 174
1646 174
1647 173
1648 171
1649 170
1650 170
1651 170
1652 169
1653 167
1654 166
1655 166
1656 166
1657 165
1658 163
1659 162
1660 162
1661 162
1662 161
1663 159
1664 158
1665 158
1666 158
1667 157
1668 155
1669 154
1670 154
1671 154
1672 153
1673 151
1674 150
1675 150
1676 150
1677 149
1678 147
1679 146
1680 146
1681 146
1682 145
1683 143
1684 142
1685 142
1686 142
1687 141
1688 139
1689 138
1690 138
1691 138
1692 137
1693 135
1694 134
1695 134
1696 134
1697 133
1698 131
1699 130
1700 130
1701 130
1702 129
1703 127
1704 126
1705 126
1706 126
1707 125
1708 123
1709 122
1710 122
1711 122
1712 121
1713 119
1714 118
1715 118
1716 118
1717 117
1718 115
1719 114
1720 114
1721 114
1722 113
1723 111
1724 110
1725 110
1726 110
1727 109
1728 107
1729 106
1730 106
1731 106
1732 105
1733 103
1734 102
1735 102
1736 102
1737 101
1738 99
1739 98
1740 98
1741 98
1742 97
1743 95
1744 94
1745 94
1746 94
1747 93
1748 91
1749 90
1750 90
1751 90
1752 89
1753 87
1754 86
1755 86
1756 86
1757 85
1758 83
1759 82
1760 82
1761 82
1762 81
1763 79
1764 78
1765 78
1766 78
1767 77
1768 75
1769 74
1770 74
1771 74
1772 73
1773 71
1774 70
1775 70
1776 70
1777 69
1778 67
1779 66
1780 66
1781 66
1782 65
1783 63
1784 62
1785 62
1786 62
1787 61
1788 59
1789 58
1790 58
1791 58
1792 57
1793 55
1794 54
1795 54
1796 54
1797 53
1798 51
1799 50
1800 50
1801 50
1802 49
1803 47
1804 46
1805 46
1806 46
1807 45
1808 43
1809 42
1810 42
1811 42
1812 41
1813 39
1814 38
1815 38
1816 38
1817 37
1818 35
1819 34
1820 34
1821 34
1822 33
1823 31
1824 30
1825 30
1826 30
1827 29
1828 27
1829 26
1830 26
1831 26
1832 25
1833 23
1834 153
1835 153
1836 153
1837 152
1838 150
1839 149
1840 149
1841 149
1842 148
1843 146
1844 145
1845 145
1846 145
1847 144
1848 142
1849 142
1850 142
1851 142
1852 141
1853 140
1854 140
1855 140
1856 140
1857 270
1858 269
1859 269
1860 269
1861 268
1862 266
1863 265
1864 265
1865 265
1866 264
1867 262
1868 261
1869 261
1870 261
1871 260
1872 258
1873 257
1874 257
1875 257
1876 256
1877 254
1878 254
1879 254
1880 254
1881 253
1882 252
1883 252
1884 252
1885 252
1886 251
1887 250
1888 250
1889 250
1890 250
1891 249
1892 248
1893 248
1894 247
1895 246
1896 245
1897 244
1898 244
1899 243
1900 242
1901 241
1902 240
1903 240
1904 239
1905 238
1906 237
1907 236
1908 236
1909 235
1910 234
1911 233
1912 232
1913 232
1914 231
1915 230
1916 229
1917 228
1918 228
1919 227
1920 226
1921 225
1922 224
1923 224
1924 223
1925 222
1926 221
1927 220
1928 223
1929 222
1930 221
1931 220
1932 219
1933 219
1934 218
1935 217
1936 216
1937 215
1938 215
1939 214
1940 212
1941 210
1942 209
1943 209
1944 208
1945 206
1946 205
1947 204
1948 204
1949 203
1950 202
1951 201
1952 200
1953 200
1954 199
1955 198
1956 197
1957 196
1958 196
1959 195
1960 194
1961 196
1962 195
1963 195
1964 194
1965 193
1966 192
1967 191
1968 191
1969 190
1970 189
1971 188
1972 187
1973 186
1974 184
1975 183
1976 182
1977 181
1978 180
1979 179
1980 178
1981 177
1982 176
1983 176
1984 175
1985 174
1986 173
1987 172
1988 172
1989 171
1990 170
1991 169
1992 168
1993 168
1994 167
1995 166
1996 165
1997 164
1998 164
1999 163
2000 162
2001 161
2002 160
2003 160
2004 159
2005 158
2006 157
2007 156
2008 156
2009 155
2010 154
2011 153
2012 152
2013 152
2014 151
2015 150
2016 149
2017 148
2018 148
2019 147
2020 146
2021 145
2022 144
2023 144
2024 143
2025 142
2026 141
2027 140
2028 140
2029 139
2030 138
2031 137
2032 136
2033 136
2034 135
2035 134
2036 133
2037 132
2038 132
2039 131
2040 130
2041 129
2042 128
2043 128
2044 127
2045 126
2046 125
2047 124
2048 124
2049 123
2050 122
2051 121
2052 120
2053 120
2054 119
2055 118
2056 117
2057 116
2058 116
2059 115
2060 114
2061 113
2062 112
2063 112
2064 111
2065 110
2066 109
2067 108
2068 108
2069 107
2070 106
2071 105
2072 104
2073 104
2074 103
2075 102
2076 101
2077 100
2078 100
2079 99
2080 98
2081 97
2082 96
2083 96
2084 95
2085 94
2086 93
2087 92
2088 92
2089 91
2090 90
2091 89
2092 88
2093 88
2094 87
2095 86
2096 85
2097 84
2098 84
2099 83
2100 82
2101 81
2102 80
2103 80
2104 79
2105 78
2106 77
2107 76
2108 76
2109 75
2110 74
2111 73
2112 72
2113 72
2114 71
2115 70
2116 69
2117 68
2118 68
2119 67
2120 66
2121 65
2122 64
2123 64
2124 63
2125 62
2126 61
2127 60
2128 60
2129 59
2130 58
2131 57
2132 56
2133 56
2134 55
2135 54
2136 53
2137 52
2138 52
2139 51
2140 50
2141 49
2142 48
2143 48
2144 47
2145 46
2146 45
2147 44
2148 44
2149 43
2150 42
2151 41
2152 40
2153 40
2154 39
2155 38
2156 37
2157 36
2158 36
2159 35
2160 34
2161 33
2162 32
2163 32
2164 31
2165 30
2166 29
2167 28
2168 28
2169 158
2170 157
2171 156
2172 155
2173 155
2174 154
2175 153
2176 152
2177 151
2178 151
2179 150
2180 149
2181 148
2182 147
2183 147
2184 146
2185 145
2186 144
2187 144
2188 144
2189 143
2190 142
2191 142
2192 142
2193 142
2194 141
2195 140
2196 270
2197 269
2198 269
2199 268
2200 267
2201 266
2202 265
2203 265
2204 264
2205 263
2206 262
2207 261
2208 261
2209 260
2210 259
2211 258
2212 257
2213 257
2214 256
2215 255
2216 254
2217 253
2218 253
2219 252
2220 252
2221 251
2222 250
2223 250
2224 250
2225 250
2226 249
2227 248
2228 248
2229 248
2230 248
2231 247
2232 246
2233 246
2234 246
2235 246
2236 245
2237 244
2238 243
2239 242
2240 242
2241 241
2242 240
2243 239
2244 238
2245 238
2246 237
2247 236
2248 235
2249 234
2250 234
2251 233
2252 232
2253 231
2254 230
2255 230
2256 229
2257 228
2258 227
2259 226
2260 226
2261 225
2262 224
2263 226
2264 225
2265 225
2266 224
2267 223
2268 222
2269 221
2270 221
2271 220
2272 219
2273 218
2274 217
2275 216
2276 214
2277 213
2278 212
2279 211
2280 210
2281 209
2282 208
2283 207
2284 206
2285 206
2286 205
2287 204
2288 203
2289 202
2290 202
2291 201
2292 200
2293 199
2294 198
2295 198
2296 197
2297 196
2298 195
2299 194
2300 194
2301 193
2302 192
2303 191
2304 190
2305 190
2306 189
2307 188
2308 187
2309 186
2310 186
2311 185
2312 184
2313 183
2314 182
2315 182
2316 181
2317 180
2318 179
2319 178
2320 178
2321 177
2322 176
2323 175
2324 174
2325 174
2326 173
2327 172
2328 171
2329 170
2330 170
2331 169
2332 168
2333 167
2334 166
2335 166
2336 165
2337 164
2338 163
2339 162
2340 162
2341 161
2342 160
2343 159
2344 158
2345 158
2346 157
2347 156
2348 155
2349 154
2350 154
2351 153
2352 152
2353 151
2354 150
2355 150
2356 149
2357 148
2358 147
2359 146
2360 146
2361 145
2362 144
2363 143
2364 142
2365 142
2366 141
2367 140
2368 139
2369 138
2370 138
2371 137
2372 136
2373 135
2374 134
2375 134
2376 133
2377 132
2378 131
2379 130
2380 130
2381 129
2382 128
2383 127
2384 126
2385 126
2386 125
2387 124
2388 123
2389 122
2390 122
2391 121
2392 120
2393 119
2394 118
2395 118
2396 117
2397 116
2398 115
2399 114
2400 114
2401 113
2402 112
2403 111
2404 110
2405 110
2406 109
2407 108
2408 107
2409 106
2410 106
2411 105
2412 104
2413 103
2414 102
2415 102
2416 101
2417 100
2418 99
2419 98
2420 98
2421 97
2422 96
2423 95
2424 94
2425 94
2426 93
2427 92
2428 91
2429 90
2430 90
2431 89
2432 88
2433 87
2434 86
2435 86
2436 85
2437 84
2438 83
2439 82
2440 82
2441 81
2442 80
2443 79
2444 78
2445 78
2446 77
2447 76
2448 75
2449 74
2450 74
2451 73
2452 72
2453 71
2454 70
2455 70
2456 69
2457 68
2458 67
2459 66
2460 66
2461 65
2462 64
2463 63
2464 62
2465 62
2466 61
2467 60
2468 59
2469 58
2470 58
2471 57
2472 56
2473 55
2474 54
2475 54
2476 53
2477 52
2478 51
2479 50
2480 50
2481 49
2482 48
2483 47
2484 46
2485 46
2486 45
2487 44
2488 43
2489 42
2490 42
2491 41
2492 40
2493 39
2494 38
2495 38
2496 37
2497 36
2498 35
2499 34
2500 34
2501 33
2502 32
2503 31
2504 161
2505 161
2506 160
2507 159
2508 158
2509 157
2510 157
2511 156
2512 155
2513 154
2514 153
2515 153
2516 152
2517 151
2518 150
2519 149
2520 149
2521 148
2522 148
2523 147
2524 146
2525 146
2526 146
2527 146
2528 145
2529 144
2530 144
2531 144
2532 144
2533 143
2534 142
2535 142
2536 141
2537 271
2538 270
2539 269
2540 269
2541 268
2542 267
2543 266
2544 265
2545 265
2546 264
2547 263
2548 262
2549 261
2550 261
2551 260
2552 259
2553 258
2554 257
2555 257
2556 256
2557 255
2558 254
2559 253
2560 253
2561 252
2562 251
2563 250
2564 250
2565 250
2566 249
2567 248
2568 248
2569 248
2570 248
2571 247
2572 246
2573 246
2574 245
2575 244
2576 243
2577 242
2578 242
2579 241
2580 240
2581 239
2582 238
2583 238
2584 237
2585 236
2586 235
2587 234
2588 234
2589 233
2590 232
2591 231
2592 230
2593 230
2594 229
2595 228
2596 227
2597 226
2598 226
2599 225
2600 224
2601 223
2602 222
2603 225
2604 224
2605 223
2606 222
2607 221
2608 221
2609 220
2610 219
2611 218
2612 217
2613 217
2614 216
2615 215
2616 214
2617 213
2618 213
2619 212
2620 211
2621 210
2622 209
2623 209
2624 208
2625 207
2626 206
2627 205
2628 205
2629 204
2630 203
2631 202
2632 201
2633 201
2634 200
2635 198
2636 196
2637 195
2638 195
2639 194
2640 192
2641 194
2642 193
2643 193
2644 192
2645 191
2646 190
2647 189
2648 189
2649 188
2650 187
2651 186
2652 185
2653 184
2654 182
2655 181
2656 180
2657 179
2658 178
2659 177
2660 176
2661 175
2662 174
2663 174
2664 173
2665 172
2666 171
2667 170
2668 170
2669 169
2670 168
2671 167
2672 166
2673 166
2674 165
2675 164
2676 163
2677 162
2678 162
2679 161
2680 160
2681 159
2682 158
2683 158
2684 157
2685 156
2686 155
2687 154
2688 154
2689 153
2690 152
2691 151
2692 150
2693 150
2694 149
2695 148
2696 147
2697 146
2698 146
2699 145
2700 144
2701 143
2702 142
2703 142
2704 141
2705 140
2706 139
2707 138
2708 138
2709 137
2710 136
2711 135
2712 134
2713 134
2714 133
2715 132
2716 131
2717 130
2718 130
2719 129
2720 128
2721 127
2722 126
2723 126
2724 125
2725 124
2726 123
2727 122
2728 122
2729 121
2730 120
2731 119
2732 118
2733 118
2734 117
2735 116
2736 115
2737 114
2738 114
2739 113
2740 112
2741 111
2742 110
2743 110
2744 109
2745 108
2746 107
2747 106
2748 106
2749 105
2750 104
2751 103
2752 102
2753 102
2754 101
2755 100
2756 99
2757 98
2758 98
2759 97
2760 96
2761 95
2762 94
2763 94
2764 93
2765 92
2766 91
2767 90
2768 90
2769 89
2770 88
2771 87
2772 86
2773 86
2774 85
2775 84
2776 83
2777 82
2778 82
2779 81
2780 80
2781 79
2782 78
2783 78
2784 77
2785 76
2786 75
2787 74
2788 74
2789 73
2790 72
2791 71
2792 70
2793 70
2794 69
2795 68
2796 67
2797 66
2798 66
2799 65
2800 64
2801 63
2802 62
2803 62
2804 61
2805 60
2806 59
2807 58
2808 58
2809 57
2810 56
2811 55
2812 54
2813 54
2814 53
2815 52
2816 51
2817 50
2818 50
2819 49
2820 48
2821 47
2822 46
2823 46
2824 45
2825 44
2826 43
2827 42
2828 42
2829 41
2830 40
2831 39
2832 38
2833 38
2834 37
2835 36
2836 35
2837 34
2838 34
2839 33
2840 32
2841 162
2842 161
2843 161
2844 160
2845 159
2846 158
2847 157
2848 157
2849 156
2850 155
2851 154
2852 153
2853 153
2854 152
2855 151
2856 150
2857 149
2858 149
2859 148
2860 147
2861 146
2862 146
2863 146
2864 145
2865 144
2866 144
2867 144
2868 144
2869 143
2870 142
2871 142
2872 142
2873 142
2874 141
2875 140
2876 271
2877 271
2878 271
2879 270
2880 269
2881 269
2882 269
2883 268
2884 266
2885 265
2886 265
2887 265
2888 264
2889 262
2890 261
2891 261
2892 261
2893 260
2894 258
2895 257
2896 257
2897 257
2898 256
2899 254
2900 254
2901 254
2902 254
2903 253
2904 252
2905 252
2906 252
2907 252
2908 250
2909 248
2910 248
2911 248
2912 248
2913 246
2914 244
2915 244
2916 244
2917 244
2918 242
2919 240
2920 240
2921 240
2922 240
2923 238
2924 236
2925 236
2926 236
2927 236
2928 234
2929 232
2930 232
2931 232
2932 232
2933 230
2934 228
2935 228
2936 228
2937 228
2938 226
2939 224
2940 224
2941 224
2942 224
2943 222
2944 220
2945 220
2946 220
2947 220
2948 218
2949 216
2950 216
2951 216
2952 216
2953 214
2954 212
2955 212
2956 212
2957 212
2958 210
2959 208
2960 208
2961 208
2962 208
2963 206
2964 204
2965 204
2966 204
2967 204
2968 202
2969 200
2970 200
2971 200
2972 200
2973 198
2974 196
2975 199
2976 199
2977 199
2978 197
2979 195
2980 195
2981 195
2982 195
2983 193
2984 191
2985 191
2986 191
2987 190
2988 187
2989 185
2990 185
2991 185
2992 184
2993 182
2994 180
2995 180
2996 180
2997 180
2998 178
2999 176
3000 176
3001 176
3002 176
3003 174
3004 172
3005 172
3006 172
3007 172
3008 170
3009 168
3010 168
3011 168
3012 168
3013 166
3014 164
3015 164
3016 164
3017 164
3018 162
3019 160
3020 160
3021 160
3022 160
3023 158
3024 156
3025 156
3026 156
3027 156
3028 154
3029 152
3030 152
3031 152
3032 152
3033 150
3034 148
3035 148
3036 148
3037 148
3038 146
3039 144
3040 144
3041 144
3042 144
3043 142
3044 140
3045 140
3046 140
3047 140
3048 138
3049 136
3050 136
3051 136
3052 136
3053 134
3054 132
3055 132
3056 132
3057 132
3058 130
3059 128
3060 128
3061 128
3062 128
3063 126
3064 124
3065 124
3066 124
3067 124
3068 122
3069 120
3070 120
3071 120
3072 120
3073 118
3074 116
3075 116
3076 116
3077 116
3078 114
3079 112
3080 112
3081 112
3082 112
3083 110
3084 108
3085 108
3086 108
3087 108
3088 106
3089 104
3090 104
3091 104
3092 104
3093 102
3094 100
3095 100
3096 100
3097 100
3098 98
3099 96
3100 96
3101 96
3102 96
3103 94
3104 92
3105 92
3106 92
3107 92
3108 90
3109 88
3110 88
3111 88
3112 88
3113 86
3114 84
3115 84
3116 84
3117 84
3118 82
3119 80
3120 80
3121 80
3122 80
3123 78
3124 76
3125 76
3126 76
3127 76
3128 74
3129 72
3130 72
3131 72
3132 72
3133 70
3134 68
3135 68
3136 68
3137 68
3138 66
3139 64
3140 64
3141 64
3142 64
3143 62
3144 60
3145 60
3146 60
3147 60
3148 58
3149 56
3150 56
3151 56
3152 56
3153 54
3154 52
3155 52
3156 52
3157 52
3158 50
3159 48
3160 48
3161 48
3162 48
3163 46
3164 44
3165 44
3166 44
3167 44
3168 42
3169 40
3170 40
3171 40
3172 40
3173 38
3174 36
3175 36
3176 36
3177 36
3178 34
3179 32
3180 32
3181 32
3182 35
3183 33
3184 31
3185 31
3186 31
3187 31
3188 29
3189 222
3190 222
3191 222
3192 222
3193 220
3194 218
3195 218
3196 218
3197 218
3198 216
3199 214
3200 214
3201 213
3202 213
3203 210
3204 208
3205 208
3206 207
3207 207
3208 204
3209 203
3210 203
3211 202
3212 202
3213 331
3214 330
3215 330
3216 329
3217 329
3218 327
3219 326
3220 326
3221 325
3222 325
3223 323
3224 321
3225 320
3226 319
3227 319
3228 317
3229 315
3230 315
3231 314
3232 314
3233 312
3234 312
3235 312
3236 311
3237 311
3238 310
3239 310
3240 310
3241 309
3242 309
3243 308
3244 308
3245 308
3246 307
3247 307
3248 306
3249 306
3250 305
3251 303
3252 303
3253 302
3254 302
3255 301
3256 299
3257 299
3258 298
3259 298
3260 297
3261 295
3262 295
3263 294
3264 294
3265 293
3266 291
3267 291
3268 290
3269 290
3270 289
3271 287
3272 287
3273 286
3274 286
3275 285
3276 283
3277 283
3278 282
3279 282
3280 281
3281 279
3282 279
3283 278
3284 278
3285 277
3286 275
3287 275
3288 274
3289 274
3290 273
3291 271
3292 271
3293 270
3294 270
3295 269
3296 267
3297 267
3298 266
3299 266
3300 265
3301 263
3302 263
3303 262
3304 262
3305 261
3306 259
3307 259
3308 258
3309 258
3310 257
3311 255
3312 255
3313 254
3314 254
3315 253
3316 251
3317 254
3318 253
3319 253
3320 252
3321 250
3322 250
3323 249
3324 249
3325 248
3326 246
3327 246
3328 245
3329 244
3330 242
3331 240
3332 240
3333 239
3334 238
3335 237
3336 235
3337 235
3338 234
3339 234
3340 233
3341 231
3342 231
3343 230
3344 230
3345 229
3346 227
3347 227
3348 226
3349 226
3350 225
3351 223
3352 223
3353 222
3354 222
3355 221
3356 219
3357 219
3358 218
3359 218
3360 217
3361 215
3362 215
3363 214
3364 214
3365 213
3366 211
3367 211
3368 210
3369 210
3370 209
3371 207
3372 207
3373 206
3374 206
3375 205
3376 203
3377 203
3378 202
3379 202
3380 201
3381 199
3382 199
3383 198
3384 198
3385 197
3386 195
3387 195
3388 194
3389 194
3390 193
3391 191
3392 191
3393 190
3394 190
3395 189
3396 187
3397 187
3398 186
3399 186
3400 185
3401 183
3402 183
3403 182
3404 182
3405 181
3406 179
3407 179
3408 178
3409 178
3410 177
3411 175
3412 175
3413 174
3414 174
3415 173
3416 171
3417 171
3418 170
3419 170
3420 169
3421 167
3422 167
3423 166
3424 166
3425 165
3426 163
3427 163
3428 162
3429 162
3430 161
3431 159
3432 159
3433 158
3434 158
3435 157
3436 155
3437 155
3438 154
3439 154
3440 153
3441 151
3442 151
3443 150
3444 150
3445 149
3446 147
3447 147
3448 146
3449 146
3450 145
3451 143
3452 143
3453 142
3454 142
3455 141
3456 139
3457 139
3458 138
3459 138
3460 137
3461 135
3462 135
3463 134
3464 134
3465 133
3466 131
3467 131
3468 130
3469 130
3470 129
3471 127
3472 127
3473 126
3474 126
3475 125
3476 123
3477 123
3478 122
3479 122
3480 121
3481 119
3482 119
3483 118
3484 118
3485 117
3486 115
3487 115
3488 114
3489 114
3490 113
3491 111
3492 111
3493 110
3494 110
3495 109
3496 107
3497 107
3498 106
3499 106
3500 105
3501 103
3502 103
3503 102
3504 102
3505 101
3506 99
3507 99
3508 98
3509 98
3510 97
3511 95
3512 95
3513 94
3514 94
3515 93
3516 91
3517 91
3518 90
3519 90
3520 89
3521 87
3522 87
3523 86
3524 86
3525 85
3526 83
3527 83
3528 82
3529 82
3530 81
3531 79
3532 79
3533 78
3534 78
3535 77
3536 75
3537 75
3538 74
3539 74
3540 73
3541 71
3542 71
3543 70
3544 70
3545 69
3546 67
3547 67
3548 66
3549 66
3550 65
3551 63
3552 194
3553 193
3554 193
3555 192
3556 190
3557 190
3558 189
3559 189
3560 188
3561 186
3562 186
3563 185
3564 185
3565 184
3566 182
3567 182
3568 181
3569 181
3570 180
3571 178
3572 178
3573 177
3574 177
3575 176
3576 175
3577 175
3578 174
3579 174
3580 174
3581 173
3582 173
3583 172
3584 172
3585 172
3586 171
3587 171
3588 170
3589 170
3590 170
3591 169
3592 169
3593 168
3594 167
3595 166
3596 165
3597 165
3598 164
3599 163
3600 162
3601 161
3602 161
3603 160
3604 159
3605 158
3606 157
3607 157
3608 156
3609 155
3610 154
3611 153
3612 153
3613 152
3614 151
3615 150
3616 149
3617 149
3618 148
3619 147
3620 146
3621 145
3622 145
3623 144
3624 143
3625 142
3626 141
3627 141
3628 140
3629 139
3630 138
3631 137
3632 137
3633 136
3634 135
3635 134
3636 133
3637 133
3638 132
3639 131
3640 130
3641 129
3642 129
3643 128
3644 127
3645 126
3646 125
3647 125
3648 124
3649 123
3650 122
3651 121
3652 121
3653 120
3654 119
3655 118
3656 117
3657 117
3658 116
3659 115
3660 114
3661 113
3662 113
3663 112
3664 111
3665 110
3666 109
3667 109
3668 108
3669 107
3670 106
3671 105
3672 105
3673 104
3674 103
3675 102
3676 101
3677 101
3678 103
3679 102
3680 101
3681 100
3682 100
3683 99
3684 98
3685 228
3686 227
3687 227
3688 227
3689 226
3690 225
3691 225
3692 225
3693 225
3694 224
3695 223
3696 223
3697 223
3698 223
3699 222
3700 221
3701 221
3702 221
3703 221
3704 220
3705 219
3706 219
3707 219
3708 219
3709 218
3710 217
3711 217
3712 217
3713 217
3714 216
3715 215
3716 215
3717 215
3718 215
3719 214
3720 212
3721 211
3722 210
3723 209
3724 208
3725 206
3726 206
3727 205
3728 204
3729 203
3730 202
3731 202
3732 201
3733 200
3734 199
3735 198
3736 198
3737 197
3738 196
3739 195
3740 194
3741 194
3742 193
3743 192
3744 191
3745 190
3746 190
3747 189
3748 188
3749 187
3750 186
3751 186
3752 185
3753 184
3754 183
3755 182
3756 182
3757 181
3758 180
3759 179
3760 178
3761 178
3762 177
3763 176
3764 175
3765 174
3766 174
3767 173
3768 172
3769 171
3770 170
3771 170
3772 169
3773 168
3774 167
3775 166
3776 166
3777 165
3778 164
3779 163
3780 162
3781 162
3782 161
3783 160
3784 159
3785 158
3786 158
3787 157
3788 156
3789 158
3790 157
3791 157
3792 156
3793 155
3794 154
3795 153
3796 153
3797 152
3798 151
3799 150
3800 149
3801 148
3802 146
3803 145
3804 144
3805 143
3806 142
3807 141
3808 140
3809 139
3810 138
3811 138
3812 137
3813 136
3814 135
3815 134
3816 134
3817 133
3818 132
3819 131
3820 130
3821 130
3822 129
3823 128
3824 127
3825 126
3826 126
3827 125
3828 124
3829 123
3830 122
3831 122
3832 121
3833 120
3834 119
3835 118
3836 118
3837 117
3838 116
3839 115
3840 114
3841 114
3842 113
3843 112
3844 111
3845 110
3846 110
3847 109
3848 108
3849 107
3850 106
3851 106
3852 105
3853 104
3854 103
3855 102
3856 102
3857 101
3858 100
3859 99
3860 98
3861 98
3862 97
3863 96
3864 95
3865 94
3866 94
3867 93
3868 92
3869 91
3870 90
3871 90
3872 89
3873 88
3874 87
3875 86
3876 86
3877 85
3878 84
3879 83
3880 82
3881 82
3882 81
3883 80
3884 79
3885 78
3886 78
3887 77
3888 76
3889 75
3890 74
3891 74
3892 73
3893 203
3894 202
3895 201
3896 201
3897 200
3898 199
3899 198
3900 197
3901 197
3902 196
3903 195
3904 194
3905 193
3906 193
3907 192
3908 191
3909 190
3910 189
3911 189
3912 188
3913 187
3914 186
3915 185
3916 185
3917 184
3918 183
3919 182
3920 182
3921 182
3922 181
3923 180
3924 180
3925 180
3926 180
3927 179
3928 178
3929 178
3930 177
3931 176
3932 175
3933 174
3934 174
3935 173
3936 172
3937 171
3938 170
3939 170
3940 169
3941 168
3942 167
3943 166
3944 166
3945 165
3946 164
3947 163
3948 162
3949 162
3950 161
3951 160
3952 159
3953 158
3954 158
3955 157
3956 156
3957 155
3958 154
3959 154
3960 153
3961 152
3962 151
3963 150
3964 150
3965 149
3966 148
3967 147
3968 146
3969 146
3970 145
3971 144
3972 143
3973 142
3974 142
3975 141
3976 140
3977 139
3978 138
3979 138
3980 137
3981 136
3982 135
3983 134
3984 134
3985 133
3986 132
3987 131
3988 130
3989 130
3990 129
3991 128
3992 127
3993 126
3994 126
3995 125
3996 124
3997 126
3998 125
3999 125
4000 124
4001 123
4002 122
4003 121
4004 121
4005 120
4006 119
4007 118
4008 117
4009 116
4010 114
4011 113
4012 112
4013 111
4014 110
4015 109
4016 108
4017 107
4018 106
4019 106
4020 105
4021 104
4022 103
4023 102
4024 233
4025 232
4026 231
4027 230
4028 229
4029 229
4030 228
4031 227
4032 226
4033 225
4034 225
4035 224
4036 223
4037 222
4038 221
4039 221
4040 220
4041 219
4042 218
4043 217
4044 217
4045 216
4046 215
4047 214
4048 214
4049 214
4050 213
4051 212
4052 212
4053 212
4054 212
4055 211
4056 209
4057 208
4058 208
4059 208
4060 207
4061 205
4062 204
4063 204
4064 204
4065 203
4066 201
4067 200
4068 200
4069 200
4070 199
4071 197
4072 196
4073 196
4074 196
4075 195
4076 193
4077 192
4078 192
4079 192
4080 191
4081 189
4082 188
4083 188
4084 188
4085 187
4086 185
4087 184
4088 184
4089 184
4090 183
4091 181
4092 180
4093 180
4094 180
4095 179
4096 177
4097 176
4098 176
4099 176
4100 175
4101 173
4102 172
4103 172
4104 172
4105 171
4106 169
4107 168
4108 168
4109 168
4110 167
4111 165
4112 164
4113 164
4114 164
4115 163
4116 161
4117 160
4118 160
4119 160
4120 159
4121 157
4122 156
4123 159
4124 159
4125 158
4126 156
4127 155
4128 155
4129 155
4130 154
4131 152
4132 151
4133 151
4134 151
4135 149
4136 146
4137 145
4138 145
4139 145
4140 143
4141 141
4142 140
4143 140
4144 140
4145 139
4146 137
4147 136
4148 136
4149 136
4150 135
4151 133
4152 132
4153 132
4154 132
4155 131
4156 129
4157 128
4158 128
4159 128
4160 127
4161 125
4162 124
4163 124
4164 124
4165 123
4166 121
4167 120
4168 120
4169 120
4170 119
4171 117
4172 116
4173 116
4174 116
4175 115
4176 113
4177 112
4178 112
4179 112
4180 111
4181 109
4182 108
4183 108
4184 108
4185 107
4186 105
4187 104
4188 104
4189 104
4190 103
4191 101
4192 100
4193 100
4194 100
4195 99
4196 97
4197 96
4198 96
4199 96
4200 95
4201 93
4202 92
4203 92
4204 92
4205 91
4206 89
4207 88
4208 88
4209 88
4210 87
4211 85
4212 84
4213 84
4214 84
4215 83
4216 81
4217 80
4218 80
4219 80
4220 79
4221 77
4222 76
4223 76
4224 76
4225 75
4226 73
4227 72
4228 72
4229 72
4230 71
4231 69
4232 199
4233 199
4234 199
4235 198
4236 196
4237 195
4238 195
4239 195
4240 194
4241 192
4242 191
4243 191
4244 191
4245 190
4246 188
4247 187
4248 187
4249 187
4250 186
4251 184
4252 183
4253 183
4254 183
4255 182
4256 181
4257 180
4258 180
4259 180
4260 180
4261 179
4262 178
4263 178
4264 177
4265 176
4266 175
4267 174
4268 174
4269 173
4270 172
4271 171
4272 170
4273 170
4274 169
4275 168
4276 167
4277 166
4278 166
4279 165
4280 164
4281 163
4282 162
4283 162
4284 161
4285 160
4286 159
4287 158
4288 158
4289 157
4290 156
4291 155
4292 154
4293 154
4294 153
4295 152
4296 151
4297 150
4298 150
4299 149
4300 148
4301 147
4302 146
4303 146
4304 145
4305 144
4306 143
4307 142
4308 142
4309 141
4310 140
4311 139
4312 138
4313 138
4314 137
4315 136
4316 135
4317 134
4318 134
4319 133
4320 132
4321 131
4322 130
4323 130
4324 129
4325 128
4326 127
4327 126
4328 126
4329 125
4330 124
4331 126
4332 125
4333 125
4334 124
4335 123
4336 122
4337 121
4338 121
4339 120
4340 119
4341 118
4342 117
4343 116
4344 114
4345 113
4346 112
4347 111
4348 110
4349 109
4350 108
4351 107
4352 106
4353 106
4354 105
4355 104
4356 103
4357 102
4358 102
4359 101
4360 100
4361 230
4362 229
4363 229
4364 228
4365 227
4366 226
4367 225
4368 225
4369 224
4370 223
4371 222
4372 221
4373 221
4374 220
4375 219
4376 218
4377 217
4378 217
4379 216
4380 215
4381 214
4382 214
4383 213
4384 211
4385 210
4386 210
4387 210
4388 209
4389 207
4390 206
4391 206
4392 206
4393 205
4394 203
4395 202
4396 202
4397 202
4398 201
4399 199
4400 198
4401 198
4402 198
4403 197
4404 195
4405 194
4406 194
4407 194
4408 193
4409 191
4410 190
4411 190
4412 190
4413 189
4414 187
4415 186
4416 186
4417 186
4418 185
4419 183
4420 182
4421 182
4422 182
4423 181
4424 179
4425 178
4426 178
4427 178
4428 177
4429 175
4430 174
4431 174
4432 174
4433 173
4434 171
4435 170
4436 170
4437 170
4438 169
4439 167
4440 166
4441 166
4442 166
4443 165
4444 163
4445 162
4446 162
4447 162
4448 161
4449 159
4450 161
4451 161
4452 161
4453 160
4454 158
4455 157
4456 157
4457 157
4458 156
4459 154
4460 153
4461 153
4462 152
4463 150
4464 148
4465 147
4466 147
4467 146
4468 145
4469 143
4470 142
4471 142
4472 142
4473 141
4474 139
4475 138
4476 138
4477 138
4478 137
4479 135
4480 134
4481 134
4482 134
4483 133
4484 131
4485 130
4486 130
4487 130
4488 129
4489 127
4490 126
4491 126
4492 126
4493 125
4494 123
4495 122
4496 122
4497 122
4498 121
4499 119
4500 118
4501 118
4502 118
4503 117
4504 115
4505 114
4506 114
4507 114
4508 113
4509 111
4510 110
4511 110
4512 110
4513 109
4514 107
4515 106
4516 106
4517 106
4518 105
4519 103
4520 102
4521 102
4522 102
4523 101
4524 99
4525 98
4526 98
4527 98
4528 97
4529 95
4530 94
4531 94
4532 94
4533 93
4534 91
4535 90
4536 90
4537 90
4538 89
4539 87
4540 86
4541 86
4542 86
4543 85
4544 83
4545 82
4546 82
4547 82
4548 81
4549 79
4550 78
4551 78
4552 78
4553 77
4554 75
4555 74
4556 74
4557 74
4558 73
4559 71
4560 70
4561 70
4562 70
4563 69
4564 67
4565 66
4566 66
4567 66
4568 65
4569 194
4570 193
4571 193
4572 193
4573 192
4574 190
4575 189
4576 189
4577 189
4578 188
4579 186
4580 185
4581 185
4582 185
4583 184
4584 182
4585 181
4586 181
4587 181
4588 180
4589 178
4590 178
4591 178
4592 178
4593 177
4594 176
4595 176
4596 176
4597 176
4598 175
4599 174
4600 174
4601 174
4602 174
4603 173
4604 172
4605 172
4606 171
4607 170
4608 169
4609 168
4610 168
4611 167
4612 166
4613 165
4614 164
4615 164
4616 163
4617 162
4618 161
4619 160
4620 160
4621 159
4622 158
4623 157
4624 156
4625 156
4626 155
4627 154
4628 153
4629 152
4630 152
4631 151
4632 150
4633 149
4634 148
4635 148
4636 147
4637 146
4638 145
4639 144
4640 144
4641 143
4642 142
4643 141
4644 140
4645 140
4646 139
4647 138
4648 137
4649 136
4650 136
4651 135
4652 134
4653 133
4654 132
4655 132
4656 131
4657 130
4658 129
4659 128
4660 128
4661 127
4662 126
4663 125
4664 124
4665 124
4666 123
4667 122
4668 121
4669 120
4670 120
4671 119
4672 118
4673 120
4674 119
4675 119
4676 118
4677 117
4678 116
4679 115
4680 115
4681 114
4682 113
4683 112
4684 111
4685 110
4686 108
4687 107
4688 106
4689 105
4690 104
4691 103
4692 102
4693 101
4694 231
4695 231
4696 230
4697 229
4698 228
4699 227
4700 227
4701 226
4702 225
4703 224
4704 223
4705 223
4706 222
4707 221
4708 220
4709 220
4710 220
4711 218
4712 216
4713 216
4714 216
4715 216
4716 214
4717 212
4718 212
4719 212
4720 212
4721 210
4722 208
4723 208
4724 208
4725 208
4726 206
4727 204
4728 204
4729 204
4730 204
4731 202
4732 200
4733 200
4734 200
4735 200
4736 198
4737 196
4738 196
4739 196
4740 196
4741 194
4742 192
4743 192
4744 192
4745 192
4746 190
4747 188
4748 188
4749 188
4750 188
4751 186
4752 184
4753 184
4754 184
4755 184
4756 182
4757 180
4758 180
4759 180
4760 180
4761 178
4762 176
4763 176
4764 176
4765 176
4766 174
4767 172
4768 172
4769 172
4770 172
4771 170
4772 168
4773 168
4774 168
4775 168
4776 166
4777 164
4778 167
4779 167
4780 167
4781 165
4782 163
4783 163
4784 163
4785 163
4786 161
4787 159
4788 159
4789 159
4790 158
4791 155
4792 153
4793 153
4794 153
4795 152
4796 150
4797 148
4798 148
4799 148
4800 148
4801 146
4802 144
4803 144
4804 144
4805 144
4806 142
4807 140
4808 140
4809 140
4810 140
4811 138
4812 136
4813 136
4814 136
4815 136
4816 134
4817 132
4818 132
4819 132
4820 132
4821 130
4822 128
4823 128
4824 128
4825 128
4826 126
4827 124
4828 124
4829 124
4830 124
4831 122
4832 120
4833 120
4834 120
4835 120
4836 118
4837 116
4838 116
4839 116
4840 116
4841 114
4842 112
4843 112
4844 112
4845 112
4846 110
4847 108
4848 108
4849 108
4850 108
4851 106
4852 104
4853 104
4854 104
4855 104
4856 102
4857 100
4858 100
4859 100
4860 100
4861 98
4862 96
4863 96
4864 96
4865 96
4866 94
4867 92
4868 92
4869 92
4870 92
4871 90
4872 88
4873 88
4874 88
4875 88
4876 86
4877 84
4878 84
4879 84
4880 84
4881 82
4882 80
4883 80
4884 80
4885 80
4886 78
4887 76
4888 76
4889 76
4890 76
4891 74
4892 72
4893 72
4894 72
4895 72
4896 70
4897 68
4898 68
4899 68
4900 68
4901 66
4902 64
4903 64
4904 64
4905 64
4906 62
4907 60
4908 191
4909 191
4910 191
4911 189
4912 187
4913 187
4914 187
4915 187
4916 185
4917 183
4918 183
4919 183
4920 183
4921 181
4922 179
4923 179
4924 179
4925 179
4926 177
4927 175
4928 175
4929 175
4930 175
4931 173
4932 172
4933 172
4934 172
4935 172
4936 171
4937 170
4938 170
4939 170
4940 170
4941 169
4942 168
4943 168
4944 168
4945 168
4946 167
4947 166
4948 166
4949 166
4950 165
4951 163
4952 162
4953 162
4954 162
4955 161
4956 159
4957 158
4958 158
4959 158
4960 157
4961 155
4962 154
4963 154
4964 154
4965 153
4966 151
4967 150
4968 150
4969 150
4970 149
4971 147
4972 146
4973 146
4974 146
4975 145
4976 143
4977 142
4978 142
4979 142
4980 141
4981 139
4982 138
4983 138
4984 138
4985 137
4986 135
4987 134
4988 134
4989 134
4990 133
4991 131
4992 130
4993 130
4994 130
4995 129
4996 127
4997 126
4998 126
4999 126
5000 125
5001 123
5002 122
5003 122
5004 122
5005 121
5006 119
5007 118
5008 118
5009 118
5010 117
5011 115
5012 114
5013 114
5014 114
5015 113
5016 111
5017 110
5018 110
5019 110
5020 109
5021 107
5022 106
5023 106
5024 106
5025 236
5026 234
5027 233
5028 233
5029 233
5030 232
5031 230
5032 229
5033 229
5034 229
5035 228
5036 226
5037 226
5038 226
5039 226
5040 225
5041 224
5042 224
5043 224
5044 224
5045 223
5046 222
5047 221
5048 220
5049 220
5050 219
5051 218
5052 217
5053 216
5054 216
5055 215
5056 214
5057 213
5058 212
5059 212
5060 211
5061 210
5062 209
5063 208
5064 208
5065 207
5066 206
5067 205
5068 204
5069 204
5070 203
5071 202
5072 201
5073 200
5074 200
5075 199
5076 198
5077 197
5078 196
5079 196
5080 195
5081 194
5082 193
5083 192
5084 192
5085 191
5086 190
5087 189
5088 188
5089 188
5090 187
5091 186
5092 185
5093 184
5094 184
5095 183
5096 182
5097 181
5098 180
5099 180
5100 179
5101 178
5102 177
5103 176
5104 176
5105 175
5106 174
5107 173
5108 172
5109 172
5110 171
5111 170
5112 169
5113 168
5114 171
5115 170
5116 169
5117 168
5118 167
5119 167
5120 166
5121 165
5122 164
5123 163
5124 163
5125 162
5126 160
5127 158
5128 157
5129 157
5130 156
5131 154
5132 153
5133 152
5134 152
5135 151
5136 150
5137 149
5138 148
5139 148
5140 147
5141 146
5142 145
5143 144
5144 144
5145 143
5146 142
5147 141
5148 140
5149 140
5150 139
5151 138
5152 137
5153 136
5154 136
5155 135
5156 134
5157 133
5158 132
5159 132
5160 131
5161 130
5162 129
5163 128
5164 128
5165 127
5166 126
5167 125
5168 124
5169 124
5170 123
5171 122
5172 121
5173 120
5174 120
5175 119
5176 118
5177 117
5178 116
5179 116
5180 115
5181 114
5182 113
5183 112
5184 112
5185 111
5186 110
5187 109
5188 108
5189 108
5190 107
5191 106
5192 105
5193 104
5194 104
5195 103
5196 102
5197 101
5198 100
5199 100
5200 99
5201 98
5202 97
5203 96
5204 96
5205 95
5206 94
5207 93
5208 92
5209 92
5210 91
5211 90
5212 89
5213 88
5214 88
5215 87
5216 86
5217 85
5218 84
5219 84
5220 83
5221 82
5222 81
5223 80
5224 80
5225 79
5226 78
5227 77
5228 76
5229 76
5230 75
5231 74
5232 73
5233 72
5234 72
5235 71
5236 70
5237 69
5238 68
5239 68
5240 67
5241 66
5242 65
5243 64
5244 64
5245 63
5246 62
5247 61
5248 60
5249 191
5250 190
5251 189
5252 188
5253 187
5254 187
5255 186
5256 185
5257 184
5258 183
5259 183
5260 182
5261 181
5262 180
5263 179
5264 179
5265 178
5266 177
5267 176
5268 175
5269 175
5270 174
5271 173
5272 172
5273 171
5274 171
5275 170
5276 170
5277 169
5278 168
5279 168
5280 168
5281 168
5282 167
5283 166
5284 166
5285 166
5286 165
5287 163
5288 162
5289 162
5290 162
5291 161
5292 159
5293 158
5294 158
5295 158
5296 157
5297 155
5298 154
5299 154
5300 154
5301 153
5302 151
5303 150
5304 150
5305 150
5306 149
5307 147
5308 146
5309 146
5310 146
5311 145
5312 143
5313 142
5314 142
5315 142
5316 141
5317 139
5318 138
5319 138
5320 138
5321 137
5322 135
5323 134
5324 134
5325 134
5326 133
5327 131
5328 130
5329 130
5330 130
5331 129
5332 127
5333 126
5334 126
5335 126
5336 125
5337 123
5338 122
5339 122
5340 122
5341 121
5342 119
5343 118
5344 118
5345 118
5346 117
5347 115
5348 114
5349 114
5350 114
5351 113
5352 111
5353 113
5354 113
5355 113
5356 112
5357 110
5358 240
5359 240
5360 240
5361 239
5362 237
5363 236
5364 236
5365 235
5366 233
5367 231
5368 230
5369 230
5370 229
5371 228
5372 226
5373 226
5374 226
5375 226
5376 225
5377 224
5378 224
5379 224
5380 224
5381 223
5382 222
5383 222
5384 222
5385 221
5386 219
5387 218
5388 218
5389 218
5390 217
5391 215
5392 214
5393 214
5394 214
5395 213
5396 211
5397 210
5398 210
5399 210
5400 209
5401 207
5402 206
5403 206
5404 206
5405 205
5406 203
5407 202
5408 202
5409 202
5410 201
5411 199
5412 198
5413 198
5414 198
5415 197
5416 195
5417 194
5418 194
5419 194
5420 193
5421 191
5422 190
5423 190
5424 190
5425 189
5426 187
5427 186
5428 186
5429 186
5430 185
5431 183
5432 182
5433 182
5434 182
5435 181
5436 179
5437 178
5438 178
5439 178
5440 177
5441 175
5442 174
5443 174
5444 174
5445 173
5446 171
5447 170
5448 170
5449 170
5450 169
5451 167
5452 169
5453 169
5454 169
5455 168
5456 166
5457 165
5458 165
5459 165
5460 164
5461 162
5462 161
5463 161
5464 160
5465 158
5466 156
5467 155
5468 155
5469 154
5470 153
5471 151
5472 150
5473 150
5474 150
5475 149
5476 147
5477 146
5478 146
5479 146
5480 145
5481 143
5482 142
5483 142
5484 142
5485 141
5486 139
5487 138
5488 138
5489 138
5490 137
5491 135
5492 134
5493 134
5494 134
5495 133
5496 131
5497 130
5498 130
5499 130
5500 129
5501 127
5502 126
5503 126
5504 126
5505 125
5506 123
5507 122
5508 122
5509 122
5510 121
5511 119
5512 118
5513 118
5514 118
5515 117
5516 115
5517 114
5518 114
5519 114
5520 113
5521 111
5522 110
5523 110
5524 110
5525 109
5526 107
5527 106
5528 106
5529 106
5530 105
5531 103
5532 102
5533 102
5534 102
5535 101
5536 99
5537 98
5538 98
5539 98
5540 97
5541 95
5542 94
5543 94
5544 94
5545 93
5546 91
5547 90
5548 90
5549 90
5550 89
5551 87
5552 86
5553 86
5554 86
5555 85
5556 83
5557 82
5558 82
5559 82
5560 81
5561 79
5562 78
5563 78
5564 78
5565 77
5566 75
5567 74
5568 74
5569 74
5570 73
5571 71
5572 70
5573 70
5574 70
5575 69
5576 67
5577 66
5578 66
5579 66
5580 65
5581 63
5582 62
5583 62
5584 62
5585 61
5586 59
5587 58
5588 189
5589 189
5590 188
5591 186
5592 185
5593 185
5594 185
5595 184
5596 182
5597 181
5598 181
5599 181
5600 180
5601 178
5602 177
5603 177
5604 177
5605 176
5606 174
5607 173
5608 173
5609 173
5610 172
5611 170
5612 170
5613 170
5614 170
5615 169
5616 168
5617 168
5618 168
5619 168
5620 166
5621 164
5622 164
5623 164
5624 164
5625 162
5626 160
5627 160
5628 160
5629 160
5630 158
5631 156
5632 156
5633 156
5634 156
5635 154
5636 152
5637 152
5638 152
5639 152
5640 150
5641 148
5642 148
5643 148
5644 148
5645 146
5646 144
5647 144
5648 144
5649 144
5650 142
5651 140
5652 140
5653 140
5654 140
5655 138
5656 136
5657 136
5658 136
5659 136
5660 134
5661 132
5662 132
5663 132
5664 132
5665 130
5666 128
5667 128
5668 128
5669 128
5670 126
5671 124
5672 124
5673 124
5674 124
5675 122
5676 120
5677 120
5678 120
5679 120
5680 118
5681 116
5682 116
5683 116
5684 116
5685 114
5686 112
5687 115
5688 115
5689 115
5690 113
5691 111
5692 111
5693 242
5694 242
5695 240
5696 238
5697 238
5698 238
5699 237
5700 234
5701 232
5702 232
5703 232
5704 231
5705 229
5706 227
5707 227
5708 227
5709 227
5710 225
5711 224
5712 224
5713 224
5714 224
5715 223
5716 222
5717 222
5718 222
5719 222
5720 220
5721 218
5722 218
5723 218
5724 218
5725 216
5726 214
5727 214
5728 214
5729 214
5730 212
5731 210
5732 210
5733 210
5734 210
5735 208
5736 206
5737 206
5738 206
5739 206
5740 204
5741 202
5742 202
5743 202
5744 202
5745 200
5746 198
5747 198
5748 198
5749 198
5750 196
5751 194
5752 194
5753 194
5754 194
5755 192
5756 190
5757 190
5758 190
5759 190
5760 188
5761 186
5762 186
5763 186
5764 186
5765 184
5766 182
5767 182
5768 182
5769 182
5770 180
5771 178
5772 178
5773 178
5774 178
5775 176
5776 174
5777 174
5778 174
5779 174
5780 172
5781 170
5782 170
5783 170
5784 170
5785 168
5786 166
5787 169
5788 169
5789 169
5790 167
5791 165
5792 165
5793 165
5794 165
5795 163
5796 161
5797 161
5798 161
5799 160
5800 157
5801 155
5802 155
5803 155
5804 154
5805 152
5806 150
5807 150
5808 150
5809 150
5810 148
5811 146
5812 146
5813 146
5814 146
5815 144
5816 142
5817 142
5818 142
5819 142
5820 140
5821 138
5822 138
5823 138
5824 138
5825 136
5826 134
5827 134
5828 134
5829 134
5830 132
5831 130
5832 130
5833 130
5834 130
5835 128
5836 126
5837 126
5838 126
5839 126
5840 124
5841 122
5842 122
5843 122
5844 122
5845 120
5846 118
5847 118
5848 118
5849 118
5850 116
5851 114
5852 114
5853 114
5854 114
5855 112
5856 110
5857 110
5858 110
5859 110
5860 108
5861 106
5862 106
5863 106
5864 106
5865 104
5866 102
5867 102
5868 102
5869 102
5870 100
5871 98
5872 98
5873 98
5874 98
5875 96
5876 94
5877 94
5878 94
5879 94
5880 92
5881 90
5882 90
5883 90
5884 90
5885 88
5886 86
5887 86
5888 86
5889 86
5890 84
5891 82
5892 82
5893 82
5894 82
5895 80
5896 78
5897 78
5898 78
5899 78
5900 76
5901 74
5902 74
5903 74
5904 74
5905 72
5906 70
5907 70
5908 70
5909 70
5910 68
5911 66
5912 66
5913 66
5914 66
5915 64
5916 62
5917 62
5918 62
5919 62
5920 60
5921 58
5922 58
5923 58
5924 58
5925 187
5926 185
5927 185
5928 185
5929 185
5930 183
5931 181
5932 181
5933 181
5934 181
5935 179
5936 177
5937 177
5938 177
5939 177
5940 175
5941 173
5942 173
5943 173
5944 173
5945 171
5946 170
5947 170
5948 170
5949 170
5950 169
5951 168
5952 168
5953 168
5954 168
5955 167
5956 166
5957 166
5958 166
5959 166
5960 165
5961 164
5962 163
5963 162
5964 162
5965 161
5966 160
5967 159
5968 158
5969 158
5970 157
5971 156
5972 155
5973 154
5974 154
5975 153
5976 152
5977 151
5978 150
5979 150
5980 149
5981 148
5982 147
5983 146
5984 146
5985 145
5986 144
5987 143
5988 142
5989 142
5990 141
5991 140
5992 139
5993 138
5994 138
5995 137
5996 136
5997 135
5998 134
5999 134
6000 133
6001 132
6002 131
6003 130
6004 130
6005 129
6006 128
6007 127
6008 126
6009 126
6010 125
6011 124
6012 123
6013 122
6014 122
6015 121
6016 120
6017 119
6018 118
6019 118
6020 117
6021 116
6022 115
6023 114
6024 114
6025 113
6026 112
6027 111
6028 241
6029 244
6030 243
6031 242
6032 241
6033 240
6034 240
6035 239
6036 238
6037 237
6038 236
6039 236
6040 235
6041 233
6042 231
6043 230
6044 230
6045 229
6046 228
6047 227
6048 226
6049 226
6050 226
6051 226
6052 225
6053 224
6054 224
6055 224
6056 224
6057 223
6058 222
6059 222
6060 221
6061 220
6062 219
6063 218
6064 218
6065 217
6066 216
6067 215
6068 214
6069 214
6070 213
6071 212
6072 211
6073 210
6074 210
6075 209
6076 208
6077 207
6078 206
6079 206
6080 205
6081 204
6082 203
6083 202
6084 202
6085 201
6086 200
6087 199
6088 198
6089 198
6090 197
6091 196
6092 195
6093 194
6094 194
6095 193
6096 192
6097 191
6098 190
6099 190
6100 189
6101 188
6102 187
6103 186
6104 186
6105 185
6106 184
6107 183
6108 182
6109 182
6110 181
6111 180
6112 179
6113 178
6114 178
6115 177
6116 176
6117 175
6118 174
6119 174
6120 173
6121 172
6122 171
6123 170
6124 170
6125 169
6126 168
6127 170
6128 169
6129 169
6130 168
6131 167
6132 166
6133 165
6134 165
6135 164
6136 163
6137 162
6138 161
6139 161
6140 160
6141 159
6142 158
6143 157
6144 157
6145 156
6146 155
6147 154
6148 153
6149 153
6150 152
6151 151
6152 150
6153 149
6154 149
6155 148
6156 147
6157 146
6158 145
6159 144
6160 142
6161 141
6162 140
6163 139
6164 138
6165 137
6166 136
6167 135
6168 134
6169 134
6170 133
6171 132
6172 131
6173 130
6174 130
6175 129
6176 128
6177 127
6178 126
6179 126
6180 125
6181 124
6182 123
6183 122
6184 122
6185 121
6186 120
6187 119
6188 118
6189 118
6190 117
6191 116
6192 115
6193 114
6194 114
6195 113
6196 112
6197 111
6198 110
6199 110
6200 109
6201 108
6202 107
6203 106
6204 106
6205 105
6206 104
6207 103
6208 102
6209 102
6210 101
6211 100
6212 99
6213 98
6214 98
6215 97
6216 96
6217 95
6218 94
6219 94
6220 93
6221 92
6222 91
6223 90
6224 90
6225 89
6226 88
6227 87
6228 86
6229 86
6230 85
6231 84
6232 83
6233 82
6234 82
6235 81
6236 80
6237 79
6238 78
6239 78
6240 77
6241 76
6242 75
6243 74
6244 74
6245 73
6246 72
6247 71
6248 70
6249 70
6250 69
6251 68
6252 67
6253 66
6254 66
6255 65
6256 64
6257 63
6258 62
6259 62
6260 61
6261 60
6262 59
6263 58
6264 189
6265 188
6266 187
6267 186
6268 185
6269 185
6270 184
6271 183
6272 182
6273 181
6274 181
6275 180
6276 179
6277 178
6278 177
6279 177
6280 176
6281 175
6282 174
6283 173
6284 173
6285 172
6286 171
6287 170
6288 170
6289 170
6290 169
6291 168
6292 168
6293 168
6294 168
6295 167
6296 166
6297 166
6298 166
6299 166
6300 165
6301 164
6302 164
6303 164
6304 164
6305 163
6306 161
6307 160
6308 160
6309 160
6310 159
6311 157
6312 156
6313 156
6314 156
6315 155
6316 153
6317 152
6318 152
6319 152
6320 151
6321 149
6322 148
6323 148
6324 148
6325 147
6326 145
6327 144
6328 144
6329 144
6330 143
6331 141
6332 140
6333 140
6334 140
6335 139
6336 137
6337 136
6338 136
6339 136
6340 135
6341 133
6342 132
6343 132
6344 132
6345 131
6346 129
6347 128
6348 128
6349 128
6350 127
6351 125
6352 124
6353 124
6354 124
6355 123
6356 121
6357 120
6358 120
6359 120
6360 119
6361 117
6362 116
6363 116
6364 116
6365 246
6366 244
6367 243
6368 243
6369 243
6370 242
6371 240
6372 239
6373 239
6374 239
6375 238
6376 236
6377 235
6378 235
6379 235
6380 234
6381 232
6382 231
6383 231
6384 231
6385 230
6386 229
6387 228
6388 228
6389 228
6390 228
6391 227
6392 226
6393 226
6394 226
6395 226
6396 225
6397 224
6398 224
6399 224
6400 224
6401 223
6402 222
6403 222
6404 222
6405 222
6406 221
6407 219
6408 218
6409 218
6410 218
6411 217
6412 215
6413 214
6414 214
6415 214
6416 213
6417 211
6418 210
6419 210
6420 210
6421 209
6422 207
6423 206
6424 206
6425 206
6426 205
6427 203
6428 202
6429 202
6430 202
6431 201
6432 199
6433 198
6434 198
6435 198
6436 197
6437 195
6438 194
6439 194
6440 194
6441 193
6442 191
6443 190
6444 190
6445 190
6446 189
6447 187
6448 186
6449 186
6450 186
6451 185
6452 183
6453 182
6454 182
6455 182
6456 181
6457 179
6458 178
6459 178
6460 178
6461 177
6462 175
6463 174
6464 174
6465 174
6466 173
6467 171
6468 170
6469 170
6470 170
6471 169
6472 167
6473 166
6474 166
6475 166
6476 165
6477 163
6478 162
6479 162
6480 162
6481 161
6482 159
6483 158
6484 158
6485 158
6486 157
6487 155
6488 154
6489 154
6490 154
6491 153
6492 151
6493 150
6494 150
6495 150
6496 149
6497 147
6498 146
6499 146
6500 146
6501 145
6502 143
6503 142
6504 142
6505 142
6506 141
6507 139
6508 138
6509 138
6510 138
6511 137
6512 135
6513 134
6514 134
6515 134
6516 133
6517 131
6518 130
6519 130
6520 130
6521 129
6522 127
6523 126
6524 126
6525 126
6526 125
6527 123
6528 122
6529 122
6530 122
6531 121
6532 119
6533 118
6534 118
6535 118
6536 117
6537 115
6538 114
6539 114
6540 114
6541 113
6542 111
6543 110
6544 110
6545 110
6546 109
6547 107
6548 106
6549 106
6550 106
6551 105
6552 103
6553 102
6554 102
6555 102
6556 101
6557 99
6558 98
6559 98
6560 98
6561 97
6562 95
6563 94
6564 94
6565 94
6566 93
6567 91
6568 90
6569 90
6570 90
6571 89
6572 87
6573 86
6574 86
6575 86
6576 85
6577 83
6578 82
6579 82
6580 82
6581 81
6582 79
6583 78
6584 78
6585 78
6586 77
6587 75
6588 74
6589 74
6590 74
6591 73
6592 71
6593 70
6594 70
6595 70
6596 69
6597 67
6598 66
6599 66
6600 66
6601 65
6602 63
6603 62
6604 62
6605 193
6606 192
6607 190
6608 189
6609 189
6610 189
6611 188
6612 186
6613 185
6614 185
6615 185
6616 184
6617 182
6618 181
6619 181
6620 181
6621 180
6622 178
6623 177
6624 177
6625 177
6626 176
6627 174
6628 173
6629 173
6630 173
6631 172
6632 171
6633 170
6634 170
6635 170
6636 170
6637 169
6638 168
6639 168
6640 168
6641 168
6642 166
6643 164
6644 164
6645 164
6646 164
6647 162
6648 160
6649 160
6650 160
6651 160
6652 158
6653 156
6654 156
6655 156
6656 156
6657 154
6658 152
6659 152
6660 152
6661 152
6662 150
6663 148
6664 148
6665 148
6666 148
6667 146
6668 144
6669 144
6670 144
6671 144
6672 142
6673 140
6674 140
6675 140
6676 140
6677 138
6678 136
6679 136
6680 136
6681 136
6682 134
6683 132
6684 132
6685 132
6686 132
6687 130
6688 128
6689 128
6690 128
6691 128
6692 126
6693 124
6694 124
6695 124
6696 124
6697 122
6698 120
6699 120
6700 120
6701 120
6702 118
6703 116
6704 116
6705 116
6706 119
6707 117
6708 115
6709 118
6710 118
6711 118
6712 116
6713 117
6714 117
6715 117
6716 117
6717 115
6718 113
6719 113
6720 500
6721 499
6722 496
6723 494
6724 494
6725 494
6726 493
6727 491
6728 489
6729 489
6730 489
6731 489
6732 487
6733 486
6734 486
6735 486
6736 486
6737 485
6738 484
6739 484
6740 484
6741 484
6742 483
6743 482
6744 482
6745 482
6746 482
6747 481
6748 479
6749 478
6750 478
6751 478
6752 477
6753 476
6754 475
6755 474
6756 473
6757 471
6758 469
6759 469
6760 468
6761 468
6762 466
6763 464
6764 464
6765 464
6766 464
6767 462
6768 460
6769 460
6770 460
6771 460
6772 458
6773 456
6774 456
6775 456
6776 456
6777 454
6778 452
6779 452
6780 452
6781 452
6782 450
6783 448
6784 448
6785 448
6786 448
6787 446
6788 444
6789 444
6790 444
6791 444
6792 442
6793 440
6794 440
6795 440
6796 440
6797 438
6798 436
6799 436
6800 436
6801 436
6802 434
6803 432
6804 432
6805 432
6806 432
6807 430
6808 428
6809 428
6810 428
6811 428
6812 426
6813 424
6814 424
6815 424
6816 424
6817 422
6818 420
6819 420
6820 420
6821 420
6822 418
6823 416
6824 416
6825 416
6826 416
6827 414
6828 412
6829 412
6830 412
6831 412
6832 410
6833 408
6834 408
6835 408
6836 408
6837 406
6838 404
6839 404
6840 404
6841 404
6842 402
6843 400
6844 400
6845 400
6846 400
6847 398
6848 396
6849 396
6850 396
6851 396
6852 394
6853 392
6854 392
6855 392
6856 392
6857 390
6858 388
6859 388
6860 388
6861 388
6862 386
6863 384
6864 384
6865 384
6866 384
6867 382
6868 380
6869 380
6870 380
6871 380
6872 378
6873 376
6874 376
6875 376
6876 376
6877 374
6878 372
6879 372
6880 372
6881 372
6882 370
6883 368
6884 368
6885 368
6886 368
6887 366
6888 364
6889 364
6890 364
6891 364
6892 362
6893 360
6894 360
6895 360
6896 360
6897 358
6898 356
6899 356
6900 356
6901 356
6902 354
6903 352
6904 352
6905 352
6906 352
6907 350
6908 348
6909 348
6910 348
6911 348
6912 346
6913 344
6914 344
6915 344
6916 344
6917 342
6918 340
6919 340
6920 340
6921 340
6922 338
6923 336
6924 336
6925 336
6926 336
6927 334
6928 332
6929 332
6930 332
6931 332
6932 330
6933 328
6934 328
6935 328
6936 328
6937 326
6938 324
6939 324
6940 324
6941 324
6942 322
6943 320
6944 451
6945 451
6946 451
6947 449
6948 447
6949 447
6950 447
6951 447
6952 445
6953 443
6954 443
6955 443
6956 443
6957 441
6958 439
6959 439
6960 439
6961 439
6962 437
6963 435
6964 435
6965 435
6966 435
6967 433
6968 432
6969 432
6970 432
6971 432
6972 431
6973 430
6974 430
6975 430
6976 429
6977 427
6978 426
6979 426
6980 426
6981 425
6982 423
6983 422
6984 422
6985 422
6986 421
6987 419
6988 418
6989 418
6990 418
6991 417
6992 415
6993 414
6994 414
6995 414
6996 413
6997 411
6998 410
6999 410
7000 410
7001 409
7002 407
7003 406
7004 406
7005 406
7006 405
7007 403
7008 402
7009 402
7010 402
7011 401
7012 399
7013 398
7014 398
7015 398
7016 397
7017 395
7018 394
7019 394
7020 394
7021 393
7022 391
7023 390
7024 390
7025 390
7026 389
7027 387
7028 386
7029 386
7030 386
7031 385
7032 383
7033 382
7034 382
7035 382
7036 381
7037 379
7038 378
7039 378
7040 378
7041 377
7042 375
7043 377
7044 377
7045 377
7046 376
7047 374
7048 373
7049 373
7050 373
7051 372
7052 370
7053 369
7054 369
7055 368
7056 366
7057 364
7058 363
7059 363
7060 362
7061 361
7062 359
7063 358
7064 358
7065 358
7066 357
7067 355
7068 354
7069 354
7070 354
7071 353
7072 351
7073 350
7074 350
7075 350
7076 349
7077 347
7078 346
7079 346
7080 346
7081 345
7082 343
7083 342
7084 342
7085 342
7086 341
7087 339
7088 338
7089 338
7090 338
7091 337
7092 335
7093 334
7094 334
7095 334
7096 333
7097 331
7098 330
7099 330
7100 330
7101 329
7102 327
7103 326
7104 326
7105 326
7106 325
7107 323
7108 322
7109 322
7110 322
7111 321
7112 319
7113 318
7114 318
7115 318
7116 317
7117 315
7118 314
7119 314
7120 314
7121 313
7122 311
7123 310
7124 310
7125 310
7126 309
7127 307
7128 306
7129 306
7130 306
7131 305
7132 303
7133 302
7134 302
7135 302
7136 301
7137 299
7138 298
7139 298
7140 298
7141 297
7142 295
7143 294
7144 294
7145 294
7146 293
7147 291
7148 290
7149 290
7150 290
7151 289
7152 287
7153 286
7154 286
7155 286
7156 285
7157 283
7158 282
7159 282
7160 282
7161 281
7162 279
7163 278
7164 278
7165 278
7166 277
7167 275
7168 274
7169 274
7170 274
7171 273
7172 271
7173 270
7174 270
7175 270
7176 269
7177 267
7178 266
7179 266
7180 266
7181 265
7182 263
7183 262
7184 262
7185 262
7186 261
7187 259
7188 258
7189 258
7190 258
7191 257
7192 255
7193 254
7194 254
7195 254
7196 253
7197 251
7198 250
7199 250
7200 250
7201 249
7202 247
7203 246
7204 246
7205 246
7206 245
7207 243
7208 242
7209 242
7210 242
7211 241
7212 239
7213 238
7214 238
7215 238
7216 237
7217 235
7218 234
7219 234
7220 234
7221 233
7222 231
7223 230
7224 230
7225 230
7226 229
7227 227
7228 226
7229 226
7230 226
7231 225
7232 223
7233 222
7234 222
7235 222
7236 221
7237 219
7238 218
7239 218
7240 218
7241 217
7242 215
7243 214
7244 214
7245 214
7246 213
7247 211
7248 210
7249 210
7250 210
7251 209
7252 207
7253 206
7254 206
7255 206
7256 205
7257 203
7258 202
7259 202
7260 202
7261 201
7262 199
7263 198
7264 198
7265 198
7266 197
7267 195
7268 194
7269 194
7270 194
7271 193
7272 191
7273 190
7274 190
7275 190
7276 189
7277 187
7278 186
7279 186
7280 186
7281 316
7282 314
7283 313
7284 313
7285 313
7286 312
7287 310
7288 309
7289 309
7290 309
7291 308
7292 306
7293 305
7294 305
7295 305
7296 304
7297 302
7298 301
7299 301
7300 301
7301 300
7302 299
7303 298
7304 298
7305 298
7306 298
7307 297
7308 296
7309 296
7310 296
7311 296
7312 295
7313 294
7314 294
7315 294
7316 294
7317 293
7318 291
7319 290
7320 290
7321 290
7322 289
7323 287
7324 286
7325 286
7326 286
7327 285
7328 283
7329 282
7330 282
7331 282
7332 281
7333 279
7334 278
7335 278
7336 278
7337 277
7338 275
7339 274
7340 274
7341 274
7342 273
7343 271
7344 270
7345 270
7346 270
7347 269
7348 267
7349 266
7350 266
7351 266
7352 265
7353 263
7354 262
7355 262
7356 262
7357 261
7358 259
7359 258
7360 258
7361 258
7362 257
7363 255
7364 254
7365 254
7366 254
7367 253
7368 251
7369 250
7370 250
7371 250
7372 249
7373 247
7374 246
7375 246
7376 246
7377 245
7378 243
7379 242
7380 242
7381 242
7382 241
7383 239
7384 238
7385 241
7386 241
7387 240
7388 238
7389 237
7390 237
7391 237
7392 236
7393 234
7394 233
7395 233
7396 233
7397 231
7398 228
7399 227
7400 227
7401 227
7402 225
7403 223
7404 222
7405 222
7406 222
7407 221
7408 219
7409 218
7410 218
7411 218
7412 217
7413 215
7414 214
7415 214
7416 214
7417 213
7418 211
7419 210
7420 210
7421 210
7422 209
7423 207
7424 206
7425 206
7426 206
7427 205
7428 203
7429 202
7430 202
7431 202
7432 201
7433 199
7434 198
7435 198
7436 198
7437 197
7438 195
7439 194
7440 194
7441 194
7442 193
7443 191
7444 190
7445 190
7446 190
7447 189
7448 187
7449 186
7450 186
7451 186
7452 185
7453 183
7454 182
7455 182
7456 182
7457 181
7458 179
7459 178
7460 178
7461 178
7462 177
7463 175
7464 174
7465 174
7466 174
7467 173
7468 171
7469 170
7470 170
7471 170
7472 169
7473 167
7474 166
7475 166
7476 166
7477 165
7478 163
7479 162
7480 162
7481 162
7482 161
7483 159
7484 158
7485 158
7486 158
7487 157
7488 155
7489 154
7490 154
7491 154
7492 153
7493 151
7494 150
7495 150
7496 150
7497 149
7498 147
7499 146
7500 146
7501 146
7502 145
7503 143
7504 142
7505 142
7506 142
7507 141
7508 139
7509 138
7510 138
7511 138
7512 137
7513 135
7514 134
7515 134
7516 134
7517 133
7518 131
7519 130
7520 130
7521 130
7522 129
7523 127
7524 126
7525 126
7526 126
7527 125
7528 123
7529 122
7530 122
7531 122
7532 121
7533 119
7534 118
7535 118
7536 118
7537 117
7538 115
7539 114
7540 114
7541 114
7542 113
7543 111
7544 110
7545 110
7546 110
7547 109
7548 107
7549 106
7550 106
7551 106
7552 105
7553 103
7554 102
7555 102
7556 102
7557 101
7558 99
7559 98
7560 98
7561 98
7562 97
7563 95
7564 94
7565 94
7566 94
7567 93
7568 91
7569 90
7570 90
7571 90
7572 89
7573 87
7574 86
7575 86
7576 86
7577 85
7578 83
7579 82
7580 82
7581 82
7582 81
7583 79
7584 78
7585 78
7586 78
7587 77
7588 75
7589 74
7590 74
7591 74
7592 73
7593 71
7594 70
7595 70
7596 70
7597 69
7598 67
7599 66
7600 66
7601 66
7602 65
7603 63
7604 62
7605 62
7606 62
7607 61
7608 59
7609 58
7610 58
7611 58
7612 57
7613 55
7614 54
7615 54
7616 54
7617 53
7618 51
7619 50
7620 181
7621 181
7622 180
7623 178
7624 177
7625 177
7626 177
7627 176
7628 174
7629 173
7630 173
7631 173
7632 172
7633 170
7634 169
7635 169
7636 169
7637 168
7638 166
7639 165
7640 165
7641 165
7642 164
7643 162
7644 162
7645 162
7646 162
7647 161
7648 160
7649 160
7650 160
7651 160
7652 159
7653 158
7654 158
7655 158
7656 158
7657 157
7658 156
7659 156
7660 156
7661 156
7662 154
7663 152
7664 152
7665 152
7666 152
7667 150
7668 148
7669 148
7670 148
7671 148
7672 146
7673 144
7674 144
7675 144
7676 144
7677 142
7678 140
7679 140
7680 140
7681 140
7682 138
7683 136
7684 136
7685 136
7686 136
7687 134
7688 132
7689 132
7690 132
7691 132
7692 130
7693 128
7694 128
7695 128
7696 128
7697 126
7698 124
7699 511
7700 511
7701 511
7702 509
7703 507
7704 507
7705 507
7706 507
7707 505
7708 503
7709 503
7710 503
7711 503
7712 501
7713 499
7714 499
7715 499
7716 498
7717 495
7718 493
7719 493
7720 493
7721 492
7722 489
7723 488
7724 488
7725 488
7726 487
7727 485
7728 484
7729 484
7730 484
7731 483
7732 481
7733 480
7734 480
7735 480
7736 479
7737 477
7738 476
7739 476
7740 476
7741 475
7742 473
7743 472
7744 472
7745 472
7746 471
7747 469
7748 468
7749 468
7750 468
7751 467
7752 465
7753 464
7754 464
7755 464
7756 463
7757 461
7758 460
7759 460
7760 460
7761 459
7762 457
7763 456
7764 456
7765 456
7766 455
7767 453
7768 452
7769 452
7770 452
7771 451
7772 449
7773 448
7774 448
7775 448
7776 447
7777 445
7778 444
7779 444
7780 444
7781 443
7782 441
7783 440
7784 440
7785 440
7786 439
7787 437
7788 436
7789 436
7790 436
7791 435
7792 433
7793 432
7794 432
7795 432
7796 431
7797 429
7798 428
7799 428
7800 428
7801 427
7802 425
7803 424
7804 424
7805 424
7806 423
7807 421
7808 420
7809 420
7810 420
7811 419
7812 417
7813 416
7814 416
7815 416
7816 415
7817 413
7818 412
7819 412
7820 412
7821 411
7822 409
7823 408
7824 408
7825 408
7826 407
7827 405
7828 404
7829 404
7830 404
7831 403
7832 401
7833 400
7834 400
7835 400
7836 399
7837 397
7838 396
7839 396
7840 396
7841 395
7842 393
7843 392
7844 392
7845 392
7846 391
7847 389
7848 388
7849 388
7850 388
7851 387
7852 385
7853 384
7854 384
7855 384
7856 383
7857 381
7858 380
7859 380
7860 380
7861 379
7862 377
7863 376
7864 376
7865 376
7866 375
7867 373
7868 372
7869 372
7870 372
7871 371
7872 369
7873 368
7874 368
7875 368
7876 367
7877 365
7878 364
7879 364
7880 364
7881 363
7882 361
7883 360
7884 360
7885 360
7886 359
7887 357
7888 356
7889 356
7890 356
7891 355
7892 353
7893 352
7894 352
7895 352
7896 351
7897 349
7898 348
7899 348
7900 348
7901 347
7902 345
7903 344
7904 344
7905 344
7906 343
7907 341
7908 340
7909 340
7910 340
7911 339
7912 337
7913 336
7914 336
7915 336
7916 335
7917 333
7918 332
7919 332
7920 332
7921 331
7922 329
7923 328
7924 328
7925 328
7926 327
7927 325
7928 324
7929 324
7930 324
7931 323
7932 321
7933 320
7934 320
7935 320
7936 319
7937 317
7938 316
7939 316
7940 316
7941 315
7942 313
7943 312
7944 312
7945 312
7946 311
7947 309
7948 308
7949 308
7950 308
7951 307
7952 305
7953 304
7954 304
7955 304
7956 303
7957 301
7958 300
7959 300
7960 300
7961 430
7962 428
7963 427
7964 427
7965 427
7966 426
7967 424
7968 423
7969 423
7970 423
7971 422
7972 420
7973 419
7974 419
7975 419
7976 418
7977 416
7978 415
7979 415
7980 415
7981 414
7982 412
7983 411
7984 411
7985 411
7986 410
7987 408
7988 408
7989 408
7990 408
7991 407
7992 406
7993 406
7994 406
7995 406
7996 405
7997 404
7998 403
7999 402
8000 402
8001 401
8002 400
8003 399
8004 398
8005 398
8006 397
8007 396
8008 395
8009 394
8010 394
8011 393
8012 392
8013 391
8014 390
8015 390
8016 389
8017 388
8018 387
8019 386
8020 386
8021 385
8022 384
8023 383
8024 382
8025 382
8026 381
8027 380
8028 379
8029 378
8030 378
8031 377
8032 376
8033 375
8034 374
8035 374
8036 373
8037 372
8038 371
8039 370
8040 370
8041 369
8042 368
8043 367
8044 366
8045 366
8046 365
8047 364
8048 363
8049 362
8050 362
8051 361
8052 360
8053 359
8054 358
8055 358
8056 357
8057 356
8058 355
8059 354
8060 354
8061 353
8062 352
8063 351
8064 350
8065 353
8066 352
8067 351
8068 350
8069 349
8070 349
8071 348
8072 347
8073 346
8074 345
8075 345
8076 344
8077 342
8078 340
8079 339
8080 339
8081 338
8082 336
8083 335
8084 334
8085 334
8086 333
8087 332
8088 331
8089 330
8090 330
8091 329
8092 328
8093 327
8094 326
8095 326
8096 325
8097 324
8098 323
8099 322
8100 322
8101 321
8102 320
8103 319
8104 318
8105 318
8106 317
8107 316
8108 315
8109 314
8110 314
8111 313
8112 312
8113 311
8114 310
8115 310
8116 309
8117 308
8118 307
8119 306
8120 306
8121 305
8122 304
8123 303
8124 302
8125 302
8126 301
8127 300
8128 299
8129 298
8130 298
8131 297
8132 296
8133 295
8134 294
8135 294
8136 293
8137 292
8138 291
8139 290
8140 290
8141 289
8142 288
8143 287
8144 286
8145 286
8146 285
8147 284
8148 283
8149 282
8150 282
8151 281
8152 280
8153 279
8154 278
8155 278
8156 277
8157 276
8158 275
8159 274
8160 274
8161 273
8162 272
8163 271
8164 270
8165 270
8166 269
8167 268
8168 267
8169 266
8170 266
8171 265
8172 264
8173 263
8174 262
8175 262
8176 261
8177 260
8178 259
8179 258
8180 258
8181 257
8182 256
8183 255
8184 254
8185 254
8186 253
8187 252
8188 251
8189 250
8190 250
8191 249
8192 248
8193 247
8194 246
8195 246
8196 245
8197 244
8198 243
8199 242
8200 242
8201 241
8202 240
8203 239
8204 238
8205 238
8206 237
8207 236
8208 235
8209 234
8210 234
8211 233
8212 232
8213 231
8214 230
8215 230
8216 229
8217 228
8218 227
8219 226
8220 226
8221 225
8222 224
8223 223
8224 222
8225 222
8226 221
8227 220
8228 219
8229 218
8230 218
8231 217
8232 216
8233 215
8234 214
8235 214
8236 213
8237 212
8238 211
8239 210
8240 210
8241 209
8242 208
8243 207
8244 206
8245 206
8246 205
8247 204
8248 203
8249 202
8250 202
8251 201
8252 200
8253 199
8254 198
8255 198
8256 197
8257 196
8258 195
8259 194
8260 194
8261 193
8262 192
8263 191
8264 190
8265 190
8266 189
8267 188
8268 187
8269 186
8270 186
8271 185
8272 184
8273 183
8274 182
8275 182
8276 181
8277 180
8278 179
8279 178
8280 178
8281 177
8282 176
8283 175
8284 174
8285 174
8286 173
8287 172
8288 171
8289 170
8290 170
8291 169
8292 168
8293 167
8294 166
8295 166
8296 165
8297 164
8298 163
8299 162
8300 293
8301 292
8302 291
8303 290
8304 289
8305 289
8306 288
8307 287
8308 286
8309 285
8310 285
8311 284
8312 283
8313 282
8314 281
8315 281
8316 280
8317 279
8318 278
8319 277
8320 277
8321 276
8322 275
8323 274
8324 274
8325 274
8326 273
8327 272
8328 272
8329 272
8330 272
8331 271
8332 269
8333 268
8334 268
8335 268
8336 267
8337 265
8338 264
8339 264
8340 264
8341 263
8342 261
8343 260
8344 260
8345 260
8346 259
8347 257
8348 256
8349 256
8350 256
8351 255
8352 253
8353 252
8354 252
8355 252
8356 251
8357 249
8358 248
8359 248
8360 248
8361 247
8362 245
8363 244
8364 244
8365 244
8366 243
8367 241
8368 240
8369 240
8370 240
8371 239
8372 237
8373 236
8374 236
8375 236
8376 235
8377 233
8378 232
8379 232
8380 232
8381 231
8382 229
8383 228
8384 228
8385 228
8386 227
8387 225
8388 224
8389 224
8390 224
8391 223
8392 221
8393 220
8394 220
8395 220
8396 219
8397 217
8398 216
8399 219
8400 219
8401 218
8402 216
8403 215
8404 215
8405 215
8406 214
8407 212
8408 211
8409 211
8410 211
8411 209
8412 206
8413 205
8414 205
8415 205
8416 203
8417 201
8418 200
8419 200
8420 200
8421 199
8422 197
8423 196
8424 196
8425 196
8426 195
8427 193
8428 192
8429 192
8430 192
8431 191
8432 189
8433 188
8434 188
8435 188
8436 187
8437 185
8438 184
8439 184
8440 184
8441 183
8442 181
8443 180
8444 180
8445 180
8446 179
8447 177
8448 176
8449 176
8450 176
8451 175
8452 173
8453 172
8454 172
8455 172
8456 171
8457 169
8458 168
8459 168
8460 168
8461 167
8462 165
8463 164
8464 164
8465 164
8466 163
8467 161
8468 160
8469 160
8470 160
8471 159
8472 157
8473 156
8474 156
8475 156
8476 155
8477 153
8478 152
8479 152
8480 152
8481 151
8482 149
8483 148
8484 148
8485 148
8486 147
8487 145
8488 144
8489 144
8490 144
8491 143
8492 141
8493 140
8494 140
8495 140
8496 139
8497 137
8498 136
8499 136
8500 136
8501 135
8502 133
8503 132
8504 132
8505 132
8506 131
8507 129
8508 128
8509 128
8510 128
8511 127
8512 125
8513 124
8514 124
8515 124
8516 123
8517 121
8518 120
8519 120
8520 120
8521 119
8522 117
8523 116
8524 116
8525 116
8526 115
8527 113
8528 112
8529 112
8530 112
8531 111
8532 109
8533 108
8534 108
8535 108
8536 107
8537 105
8538 104
8539 104
8540 104
8541 103
8542 101
8543 100
8544 100
8545 100
8546 99
8547 97
8548 96
8549 96
8550 96
8551 95
8552 93
8553 92
8554 92
8555 92
8556 91
8557 89
8558 88
8559 88
8560 88
8561 87
8562 85
8563 84
8564 84
8565 84
8566 83
8567 81
8568 80
8569 80
8570 80
8571 79
8572 77
8573 76
8574 76
8575 76
8576 75
8577 73
8578 72
8579 72
8580 72
8581 71
8582 69
8583 68
8584 68
8585 68
8586 67
8587 65
8588 64
8589 64
8590 64
8591 63
8592 61
8593 60
8594 60
8595 60
8596 59
8597 57
8598 56
8599 56
8600 56
8601 55
8602 53
8603 52
8604 52
8605 52
8606 51
8607 49
8608 48
8609 48
8610 48
8611 47
8612 45
8613 44
8614 44
8615 44
8616 43
8617 41
8618 40
8619 40
8620 40
8621 39
8622 37
8623 36
8624 36
8625 36
8626 35
8627 33
8628 32
8629 32
8630 32
8631 31
8632 29
8633 28
8634 28
8635 28
8636 27
8637 156
8638 155
8639 155
8640 155
8641 154
8642 152
8643 151
8644 151
8645 151
8646 150
8647 148
8648 147
8649 147
8650 147
8651 146
8652 144
8653 143
8654 143
8655 143
8656 142
8657 140
8658 140
8659 140
8660 140
8661 139
8662 138
8663 138
8664 138
8665 138
8666 137
8667 136
8668 136
8669 136
8670 331
8671 330
8672 329
8673 329
8674 328
8675 327
8676 326
8677 325
8678 325
8679 324
8680 323
8681 322
8682 321
8683 320
8684 319
8685 318
8686 318
8687 317
8688 316
8689 315
8690 314
8691 314
8692 313
8693 312
8694 311
8695 310
8696 310
8697 309
8698 308
8699 307
8700 306
8701 306
8702 305
8703 304
8704 303
8705 302
8706 302
8707 301
8708 300
8709 299
8710 298
8711 298
8712 297
8713 296
8714 295
8715 294
8716 294
8717 293
8718 292
8719 291
8720 290
8721 290
8722 289
8723 288
8724 287
8725 286
8726 286
8727 285
8728 284
8729 283
8730 282
8731 282
8732 281
8733 280
8734 279
8735 278
8736 278
8737 277
8738 276
8739 275
8740 274
8741 277
8742 276
8743 275
8744 274
8745 273
8746 273
8747 272
8748 271
8749 270
8750 269
8751 269
8752 268
8753 266
8754 264
8755 263
8756 263
8757 262
8758 260
8759 259
8760 258
8761 258
8762 257
8763 256
8764 255
8765 254
8766 254
8767 253
8768 252
8769 251
8770 250
8771 250
8772 249
8773 248
8774 247
8775 246
8776 246
8777 245
8778 244
8779 243
8780 242
8781 242
8782 241
8783 240
8784 239
8785 238
8786 238
8787 237
8788 236
8789 235
8790 234
8791 234
8792 233
8793 232
8794 231
8795 230
8796 230
8797 229
8798 228
8799 227
8800 226
8801 226
8802 225
8803 224
8804 223
8805 222
8806 222
8807 221
8808 220
8809 219
8810 218
8811 218
8812 217
8813 216
8814 215
8815 214
8816 214
8817 213
8818 212
8819 211
8820 210
8821 210
8822 209
8823 208
8824 207
8825 206
8826 206
8827 205
8828 204
8829 203
8830 202
8831 202
8832 201
8833 200
8834 199
8835 198
8836 198
8837 197
8838 196
8839 195
8840 194
8841 194
8842 193
8843 192
8844 191
8845 190
8846 190
8847 189
8848 188
8849 187
8850 186
8851 186
8852 185
8853 184
8854 183
8855 182
8856 182
8857 181
8858 180
8859 179
8860 178
8861 178
8862 177
8863 176
8864 175
8865 174
8866 174
8867 173
8868 172
8869 171
8870 170
8871 170
8872 169
8873 168
8874 167
8875 166
8876 166
8877 165
8878 164
8879 163
8880 162
8881 162
8882 161
8883 160
8884 159
8885 158
8886 158
8887 157
8888 156
8889 155
8890 154
8891 154
8892 153
8893 152
8894 151
8895 150
8896 150
8897 149
8898 148
8899 147
8900 146
8901 146
8902 145
8903 144
8904 143
8905 142
8906 142
8907 141
8908 140
8909 139
8910 138
8911 138
8912 137
8913 136
8914 135
8915 134
8916 134
8917 133
8918 132
8919 131
8920 130
8921 130
8922 129
8923 128
8924 127
8925 126
8926 126
8927 125
8928 124
8929 123
8930 122
8931 122
8932 121
8933 120
8934 119
8935 118
8936 118
8937 117
8938 116
8939 115
8940 114
8941 114
8942 113
8943 112
8944 111
8945 110
8946 110
8947 109
8948 108
8949 107
8950 106
8951 106
8952 105
8953 104
8954 103
8955 102
8956 102
8957 101
8958 100
8959 99
8960 98
8961 98
8962 97
8963 96
8964 95
8965 94
8966 94
8967 93
8968 92
8969 91
8970 90
8971 90
8972 89
8973 88
8974 87
8975 86
8976 217
8977 216
8978 215
8979 214
8980 213
8981 213
8982 212
8983 211
8984 210
8985 209
8986 209
8987 208
8988 207
8989 206
8990 205
8991 205
8992 204
8993 203
8994 202
8995 201
8996 201
8997 200
8998 199
8999 198
9000 198
9001 198
9002 197
9003 196
9004 196
9005 196
9006 196
9007 195
9008 194
9009 194
9010 194
9011 194
9012 193
9013 192
9014 192
9015 192
9016 192
9017 191
9018 189
9019 188
9020 188
9021 188
9022 187
9023 185
9024 184
9025 184
9026 184
9027 183
9028 181
9029 180
9030 180
9031 180
9032 179
9033 177
9034 176
9035 176
9036 176
9037 175
9038 173
9039 172
9040 172
9041 172
9042 171
9043 169
9044 168
9045 168
9046 168
9047 167
9048 165
9049 164
9050 164
9051 164
9052 163
9053 161
9054 160
9055 160
9056 160
9057 159
9058 157
9059 156
9060 156
9061 156
9062 155
9063 153
9064 152
9065 152
9066 152
9067 151
9068 149
9069 148
9070 148
9071 148
9072 147
9073 145
9074 144
9075 144
9076 144
9077 143
9078 141
9079 140
9080 140
9081 140
9082 139
9083 137
9084 136
9085 136
9086 136
9087 135
9088 133
9089 132
9090 132
9091 132
9092 131
9093 129
9094 128
9095 128
9096 128
9097 127
9098 125
9099 124
9100 124
9101 124
9102 123
9103 121
9104 120
9105 120
9106 120
9107 119
9108 117
9109 116
9110 116
9111 116
9112 115
9113 113
9114 112
9115 112
9116 112
9117 111
9118 109
9119 108
9120 108
9121 108
9122 107
9123 105
9124 104
9125 104
9126 104
9127 103
9128 101
9129 100
9130 100
9131 100
9132 99
[...]
25039 183
25040 182
25041 181
25042 180
25043 180
25044 179
25045 178
25046 177
25047 176
25048 176
25049 175
25050 174
25051 173
25052 172
25053 172
25054 171
25055 170
25056 169
25057 168
25058 168
25059 167
25060 166
25061 165
25062 164
25063 164
25064 163
25065 162
25066 161
25067 160
25068 160
25069 159
25070 158
25071 157
25072 156
25073 156
25074 155
25075 154
25076 153
25077 152
25078 152
25079 151
25080 150
25081 149
25082 148
25083 148
25084 147
25085 146
25086 145
25087 144
25088 144
25089 143
25090 142
25091 141
25092 140
25093 140
25094 139
25095 138
25096 137
25097 136
25098 136
25099 135
25100 134
25101 133
25102 132
25103 132
25104 131
25105 130
25106 129
25107 128
25108 128
25109 127
25110 126
25111 125
25112 124
25113 124
25114 123
25115 122
25116 121
25117 120
25118 120
25119 119
25120 118
25121 117
25122 116
25123 116
25124 115
25125 114
25126 113
25127 112
25128 112
25129 111
25130 110
25131 109
25132 108
25133 108
25134 107
25135 106
25136 105
25137 104
25138 104
25139 103
25140 102
25141 101
25142 100
25143 100
25144 99
25145 98
25146 97
25147 96
25148 96
25149 95
25150 94
25151 93
25152 92
25153 92
25154 91
25155 90
25156 89
25157 88
25158 88
25159 87
25160 86
25161 85
25162 84
25163 84
25164 83
25165 82
25166 81
25167 80
25168 80
25169 79
25170 78
25171 77
25172 76
25173 76
25174 75
25175 74
25176 73
25177 72
25178 72
25179 71
25180 70
25181 69
25182 68
25183 68
25184 67
25185 66
25186 65
25187 64
25188 64
25189 63
25190 62
25191 61
25192 60
25193 60
25194 59
25195 58
25196 57
25197 56
25198 56
25199 55
25200 54
25201 53
25202 52
25203 52
25204 51
25205 50
25206 49
25207 48
25208 48
25209 47
25210 46
25211 45
25212 44
25213 44
25214 43
25215 42
25216 41
25217 40
25218 40
25219 39
25220 38
25221 37
25222 36
25223 36
25224 35
25225 34
25226 33
25227 32
25228 32
25229 31
25230 30
25231 29
25232 28
25233 28
25234 27
25235 26
25236 25
25237 24
25238 24
25239 23
25240 22
25241 21
25242 20
25243 20
25244 19
25245 18
25246 17
25247 16
25248 147
25249 146
25250 276
25251 275
25252 274
25253 274
25254 273
25255 272
25256 271
25257 270
25258 270
25259 269
25260 268
25261 267
25262 266
25263 266
25264 265
25265 265
25266 264
25267 262
25268 261
25269 261
25270 261
25271 260
25272 259
25273 258
25274 258
25275 258
25276 258
25277 257
25278 256
25279 256
25280 256
25281 256
25282 255
25283 254
25284 254
25285 254
25286 254
25287 253
25288 252
25289 252
25290 251
25291 250
25292 249
25293 248
25294 248
25295 247
25296 246
25297 245
25298 244
25299 244
25300 243
25301 242
25302 241
25303 240
25304 240
25305 239
25306 238
25307 237
25308 236
25309 236
25310 235
25311 234
25312 233
25313 232
25314 232
25315 231
25316 230
25317 229
25318 228
25319 228
25320 227
25321 226
25322 225
25323 224
25324 224
25325 223
25326 222
25327 221
25328 220
25329 220
25330 219
25331 218
25332 217
25333 216
25334 219
25335 218
25336 217
25337 216
25338 215
25339 215
25340 214
25341 213
25342 212
25343 211
25344 211
25345 210
25346 208
25347 206
25348 205
25349 205
25350 204
25351 202
25352 201
25353 200
25354 200
25355 199
25356 198
25357 197
25358 196
25359 196
25360 195
25361 194
25362 193
25363 192
25364 192
25365 191
25366 190
25367 189
25368 188
25369 188
25370 187
25371 186
25372 185
25373 184
25374 184
25375 183
25376 182
25377 181
25378 180
25379 180
25380 179
25381 178
25382 177
25383 176
25384 176
25385 175
25386 174
25387 173
25388 172
25389 172
25390 171
25391 170
25392 169
25393 168
25394 168
25395 167
25396 166
25397 165
25398 164
25399 164
25400 163
25401 162
25402 161
25403 160
25404 160
25405 159
25406 158
25407 157
25408 156
25409 156
25410 155
25411 154
25412 153
25413 152
25414 152
25415 151
25416 150
25417 149
25418 148
25419 148
25420 147
25421 146
25422 145
25423 144
25424 144
25425 143
25426 142
25427 141
25428 140
25429 140
25430 139
25431 138
25432 137
25433 136
25434 136
25435 135
25436 134
25437 133
25438 132
25439 132
25440 131
25441 130
25442 129
25443 128
25444 128
25445 127
25446 126
25447 125
25448 124
25449 124
25450 123
25451 122
25452 121
25453 120
25454 120
25455 119
25456 118
25457 117
25458 116
25459 116
25460 115
25461 114
25462 113
25463 112
25464 112
25465 111
25466 110
25467 109
25468 108
25469 108
25470 107
25471 106
25472 105
25473 104
25474 104
25475 103
25476 102
25477 101
25478 100
25479 100
25480 99
25481 98
25482 97
25483 96
25484 96
25485 95
25486 94
25487 93
25488 92
25489 92
25490 91
25491 90
25492 89
25493 88
25494 88
25495 87
25496 86
25497 85
25498 84
25499 84
25500 83
25501 82
25502 81
25503 80
25504 80
25505 79
25506 78
25507 77
25508 76
25509 76
25510 75
25511 74
25512 73
25513 72
25514 72
25515 71
25516 70
25517 69
25518 68
25519 68
25520 67
25521 66
25522 65
25523 64
25524 64
25525 63
25526 62
25527 61
25528 60
25529 60
25530 59
25531 58
25532 57
25533 56
25534 56
25535 55
25536 54
25537 53
25538 52
25539 52
25540 51
25541 50
25542 49
25543 48
25544 48
25545 47
25546 46
25547 45
25548 44
25549 44
25550 43
25551 42
25552 41
25553 40
25554 40
25555 39
25556 38
25557 37
25558 36
25559 36
25560 35
25561 34
25562 33
25563 32
25564 32
25565 31
25566 30
25567 29
25568 28
25569 28
25570 27
25571 26
25572 25
25573 24
25574 24
25575 23
25576 22
25577 21
25578 20
25579 20
25580 19
25581 149
25582 148
25583 147
25584 147
25585 146
25586 145
25587 144
25588 143
25589 274
25590 273
25591 272
25592 271
25593 271
25594 271
25595 270
25596 269
25597 269
25598 269
25599 269
25600 268
25601 267
25602 267
25603 266
25604 265
25605 264
25606 263
25607 263
25608 262
25609 261
25610 260
25611 259
25612 259
25613 258
25614 257
25615 256
25616 256
25617 256
25618 255
25619 254
25620 254
25621 254
25622 254
25623 253
25624 252
25625 252
25626 251
25627 250
25628 249
25629 248
25630 248
25631 247
25632 246
25633 245
25634 244
25635 244
25636 243
25637 242
25638 241
25639 240
25640 240
25641 239
25642 238
25643 237
25644 236
25645 236
25646 235
25647 234
25648 233
25649 232
25650 232
25651 231
25652 230
25653 229
25654 228
25655 228
25656 227
25657 226
25658 225
25659 224
25660 224
25661 223
25662 222
25663 221
25664 220
25665 220
25666 219
25667 218
25668 217
25669 216
25670 219
25671 218
25672 217
25673 216
25674 215
25675 215
25676 214
25677 213
25678 212
25679 211
25680 211
25681 210
25682 208
25683 206
25684 205
25685 205
25686 204
25687 202
25688 201
25689 200
25690 200
25691 199
25692 198
25693 200
25694 199
25695 199
25696 198
25697 197
25698 196
25699 195
25700 195
25701 194
25702 193
25703 192
25704 191
25705 190
25706 188
25707 187
25708 186
25709 185
25710 184
25711 183
25712 182
25713 181
25714 180
25715 180
25716 179
25717 178
25718 177
25719 176
25720 176
25721 175
25722 174
25723 173
25724 172
25725 172
25726 171
25727 170
25728 169
25729 168
25730 168
25731 167
25732 166
25733 165
25734 164
25735 164
25736 163
25737 162
25738 161
25739 160
25740 160
25741 159
25742 158
25743 157
25744 156
25745 156
25746 155
25747 154
25748 153
25749 152
25750 152
25751 151
25752 150
25753 149
25754 148
25755 148
25756 147
25757 146
25758 145
25759 144
25760 144
25761 143
25762 142
25763 141
25764 140
25765 140
25766 139
25767 138
25768 137
25769 136
25770 136
25771 135
25772 134
25773 133
25774 132
25775 132
25776 131
25777 130
25778 129
25779 128
25780 128
25781 127
25782 126
25783 125
25784 124
25785 124
25786 123
25787 122
25788 121
25789 120
25790 120
25791 119
25792 118
25793 117
25794 116
25795 116
25796 115
25797 114
25798 113
25799 112
25800 112
25801 111
25802 110
25803 109
25804 108
25805 108
25806 107
25807 106
25808 105
25809 104
25810 104
25811 103
25812 102
25813 101
25814 100
25815 100
25816 99
25817 98
25818 97
25819 96
25820 96
25821 95
25822 94
25823 93
25824 92
25825 92
25826 91
25827 90
25828 89
25829 88
25830 88
25831 87
25832 86
25833 85
25834 84
25835 84
25836 83
25837 82
25838 81
25839 80
25840 80
25841 79
25842 78
25843 77
25844 76
25845 76
25846 75
25847 74
25848 73
25849 72
25850 72
25851 71
25852 70
25853 69
25854 68
25855 68
25856 67
25857 66
25858 65
25859 64
25860 64
25861 63
25862 62
25863 61
25864 60
25865 60
25866 59
25867 58
25868 57
25869 56
25870 56
25871 55
25872 54
25873 53
25874 52
25875 52
25876 51
25877 50
25878 49
25879 48
25880 48
25881 47
25882 46
25883 45
25884 44
25885 44
25886 43
25887 42
25888 41
25889 40
25890 40
25891 39
25892 38
25893 37
25894 36
25895 36
25896 35
25897 34
25898 33
25899 32
25900 32
25901 31
25902 30
25903 29
25904 28
25905 28
25906 27
25907 26
25908 25
25909 24
25910 24
25911 23
25912 22
25913 21
25914 151
25915 151
25916 150
25917 149
25918 148
25919 147
25920 147
25921 146
25922 145
25923 144
25924 143
25925 143
25926 142
25927 141
25928 271
25929 271
25930 271
25931 270
25932 269
25933 269
25934 269
25935 269
25936 268
25937 267
25938 267
25939 267
25940 267
25941 265
25942 263
25943 263
25944 263
25945 263
25946 261
25947 259
25948 259
25949 259
25950 259
25951 257
25952 256
25953 256
25954 256
25955 256
25956 255
25957 254
25958 254
25959 254
25960 254
25961 253
25962 252
25963 252
25964 252
25965 252
25966 251
25967 250
25968 250
25969 250
25970 249
25971 247
25972 246
25973 246
25974 246
25975 245
25976 243
25977 242
25978 242
25979 242
25980 241
25981 239
25982 238
25983 238
25984 238
25985 237
25986 235
25987 234
25988 234
25989 234
25990 233
25991 231
25992 230
25993 230
25994 230
25995 229
25996 227
25997 226
25998 226
25999 226
26000 225
26001 223
26002 222
26003 222
26004 222
26005 221
26006 219
26007 218
26008 221
26009 221
26010 220
26011 218
26012 217
26013 217
26014 217
26015 216
26016 214
26017 213
26018 213
26019 213
26020 211
26021 208
26022 207
26023 207
26024 207
26025 205
26026 203
26027 202
26028 202
26029 202
26030 201
26031 199
26032 198
26033 198
26034 198
26035 197
26036 195
26037 194
26038 194
26039 194
26040 193
26041 191
26042 190
26043 190
26044 190
26045 189
26046 187
26047 186
26048 186
26049 186
26050 185
26051 183
26052 182
26053 182
26054 182
26055 181
26056 179
26057 178
26058 178
26059 178
26060 177
26061 175
26062 174
26063 174
26064 174
26065 173
26066 171
26067 170
26068 170
26069 170
26070 169
26071 167
26072 166
26073 166
26074 166
26075 165
26076 163
26077 162
26078 162
26079 162
26080 161
26081 159
26082 158
26083 158
26084 158
26085 157
26086 155
26087 154
26088 154
26089 154
26090 153
26091 151
26092 150
26093 150
26094 150
26095 149
26096 147
26097 146
26098 146
26099 146
26100 145
26101 143
26102 142
26103 142
26104 142
26105 141
26106 139
26107 138
26108 138
26109 138
26110 137
26111 135
26112 134
26113 134
26114 134
26115 133
26116 131
26117 130
26118 130
26119 130
26120 129
26121 127
26122 126
26123 126
26124 126
26125 125
26126 123
26127 122
26128 122
26129 122
26130 121
26131 119
26132 118
26133 118
26134 118
26135 117
26136 115
26137 114
26138 114
26139 114
26140 113
26141 111
26142 110
26143 110
26144 110
26145 109
26146 107
26147 106
26148 106
26149 106
26150 105
26151 103
26152 102
26153 102
26154 102
26155 101
26156 99
26157 98
26158 98
26159 98
26160 97
26161 95
26162 94
26163 94
26164 94
26165 93
26166 91
26167 90
26168 90
26169 90
26170 89
26171 87
26172 86
26173 86
26174 86
26175 85
26176 83
26177 82
26178 82
26179 82
26180 81
26181 79
26182 78
26183 78
26184 78
26185 77
26186 75
26187 74
26188 74
26189 74
26190 73
26191 71
26192 70
26193 70
26194 70
26195 69
26196 67
26197 66
26198 66
26199 66
26200 65
26201 63
26202 62
26203 62
26204 62
26205 61
26206 59
26207 58
26208 58
26209 58
26210 57
26211 55
26212 54
26213 54
26214 54
26215 53
26216 51
26217 50
26218 50
26219 50
26220 49
26221 47
26222 46
26223 46
26224 46
26225 45
26226 43
26227 42
26228 42
26229 42
26230 41
26231 39
26232 38
26233 38
26234 38
26235 37
26236 35
26237 34
26238 34
26239 34
26240 33
26241 31
26242 30
26243 30
26244 30
26245 29
26246 27
26247 26
26248 26
26249 157
26250 156
26251 154
26252 153
26253 153
26254 153
26255 152
26256 150
26257 149
26258 149
26259 149
26260 148
26261 146
26262 145
26263 145
26264 145
26265 144
26266 142
26267 142
26268 142
26269 273
26270 272
26271 271
26272 271
26273 271
26274 271
26275 270
26276 268
26277 267
26278 267
26279 267
26280 266
26281 264
26282 263
26283 263
26284 263
26285 262
26286 260
26287 259
26288 259
26289 259
26290 258
26291 256
26292 255
26293 255
26294 255
26295 254
26296 253
26297 252
26298 252
26299 252
26300 252
26301 251
26302 250
26303 250
26304 250
26305 250
26306 249
26307 248
26308 248
26309 248
26310 248
26311 246
26312 244
26313 244
26314 244
26315 244
26316 242
26317 240
26318 240
26319 240
26320 240
26321 238
26322 236
26323 236
26324 236
26325 236
26326 234
26327 232
26328 232
26329 232
26330 232
26331 230
26332 228
26333 228
26334 228
26335 228
26336 226
26337 224
26338 224
26339 224
26340 224
26341 222
26342 220
26343 223
26344 223
26345 223
26346 221
26347 219
26348 219
26349 219
26350 219
26351 217
26352 215
26353 215
26354 215
26355 214
26356 211
26357 209
26358 209
26359 209
26360 208
26361 206
26362 204
26363 204
26364 204
26365 204
26366 202
26367 200
26368 200
26369 200
26370 200
26371 198
26372 196
26373 196
26374 196
26375 196
26376 194
26377 192
26378 192
26379 192
26380 192
26381 190
26382 188
26383 188
26384 188
26385 188
26386 186
26387 184
26388 184
26389 184
26390 184
26391 182
26392 180
26393 180
26394 180
26395 180
26396 178
26397 176
26398 176
26399 176
26400 176
26401 174
26402 172
26403 172
26404 172
26405 172
26406 170
26407 168
26408 168
26409 168
26410 168
26411 166
26412 164
26413 164
26414 164
26415 164
26416 162
26417 160
26418 160
26419 160
26420 160
26421 158
26422 156
26423 156
26424 156
26425 156
26426 154
26427 152
26428 152
26429 152
26430 152
26431 150
26432 148
26433 148
26434 148
26435 148
26436 146
26437 144
26438 144
26439 144
26440 144
26441 142
26442 140
26443 140
26444 140
26445 140
26446 138
26447 136
26448 136
26449 136
26450 136
26451 134
26452 132
26453 132
26454 132
26455 132
26456 130
26457 128
26458 128
26459 128
26460 128
26461 126
26462 124
26463 124
26464 124
26465 124
26466 122
26467 120
26468 120
26469 120
26470 120
26471 118
26472 116
26473 116
26474 116
26475 116
26476 114
26477 112
26478 112
26479 112
26480 112
26481 110
26482 108
26483 108
26484 108
26485 108
26486 106
26487 104
26488 104
26489 104
26490 104
26491 102
26492 100
26493 100
26494 100
26495 100
26496 98
26497 96
26498 96
26499 96
26500 96
26501 94
26502 92
26503 92
26504 92
26505 92
26506 90
26507 88
26508 88
26509 88
26510 88
26511 86
26512 84
26513 84
26514 84
26515 84
26516 82
26517 80
26518 80
26519 80
26520 80
26521 78
26522 76
26523 76
26524 76
26525 76
26526 74
26527 72
26528 72
26529 72
26530 72
26531 70
26532 68
26533 68
26534 68
26535 68
26536 66
26537 64
26538 64
26539 64
26540 64
26541 62
26542 60
26543 60
26544 60
26545 60
26546 58
26547 56
26548 56
26549 56
26550 56
26551 54
26552 52
26553 52
26554 52
26555 52
26556 50
26557 48
26558 48
26559 48
26560 48
26561 46
26562 44
26563 44
26564 44
26565 44
26566 42
26567 40
26568 40
26569 40
26570 40
26571 38
26572 36
26573 36
26574 36
26575 36
26576 34
26577 32
26578 32
26579 32
26580 32
26581 30
26582 28
26583 28
26584 159
26585 159
26586 157
26587 155
26588 155
26589 155
26590 155
26591 153
26592 151
26593 151
26594 151
26595 151
26596 149
26597 147
26598 147
26599 147
26600 147
26601 145
26602 144
26603 144
26604 144
26605 144
26606 143
26607 142
26608 142
26609 142
26610 273
26611 272
26612 271
26613 271
26614 271
26615 271
26616 269
26617 267
26618 267
26619 267
26620 267
26621 265
26622 263
26623 263
26624 263
26625 263
26626 261
26627 259
26628 259
26629 259
26630 259
26631 257
26632 255
26633 255
26634 255
26635 255
26636 253
26637 252
26638 252
26639 252
26640 252
26641 251
26642 250
26643 250
26644 250
26645 250
26646 249
26647 248
26648 248
26649 248
26650 248
26651 247
26652 245
26653 244
26654 244
26655 244
26656 243
26657 241
26658 240
26659 240
26660 240
26661 239
26662 237
26663 236
26664 236
26665 236
26666 235
26667 233
26668 232
26669 232
26670 232
26671 231
26672 229
26673 228
26674 228
26675 228
26676 227
26677 225
26678 224
26679 224
26680 224
26681 223
26682 221
26683 223
26684 223
26685 223
26686 222
26687 220
26688 219
26689 219
26690 219
26691 218
26692 216
26693 215
26694 215
26695 215
26696 214
26697 212
26698 211
26699 211
26700 211
26701 210
26702 208
26703 207
26704 207
26705 207
26706 206
26707 204
26708 203
26709 203
26710 203
26711 202
26712 200
26713 199
26714 199
26715 198
26716 196
26717 194
26718 193
26719 193
26720 192
26721 191
26722 189
26723 188
26724 188
26725 188
26726 187
26727 185
26728 184
26729 184
26730 184
26731 183
26732 181
26733 180
26734 180
26735 180
26736 179
26737 177
26738 176
26739 176
26740 176
26741 175
26742 173
26743 172
26744 172
26745 172
26746 171
26747 169
26748 168
26749 168
26750 168
26751 167
26752 165
26753 164
26754 164
26755 164
26756 163
26757 161
26758 160
26759 160
26760 160
26761 159
26762 157
26763 156
26764 156
26765 156
26766 155
26767 153
26768 152
26769 152
26770 152
26771 151
26772 149
26773 148
26774 148
26775 148
26776 147
26777 145
26778 144
26779 144
26780 144
26781 143
26782 141
26783 140
26784 140
26785 140
26786 139
26787 137
26788 136
26789 136
26790 136
26791 135
26792 133
26793 132
26794 132
26795 132
26796 131
26797 129
26798 128
26799 128
26800 128
26801 127
26802 125
26803 124
26804 124
26805 124
26806 123
26807 121
26808 120
26809 120
26810 120
26811 119
26812 117
26813 116
26814 116
26815 116
26816 115
26817 113
26818 112
26819 112
26820 112
26821 111
26822 109
26823 108
26824 108
26825 108
26826 107
26827 105
26828 104
26829 104
26830 104
26831 103
26832 101
26833 100
26834 100
26835 100
26836 99
26837 97
26838 96
26839 96
26840 96
26841 95
26842 93
26843 92
26844 92
26845 92
26846 91
26847 89
26848 88
26849 88
26850 88
26851 87
26852 85
26853 84
26854 84
26855 84
26856 83
26857 81
26858 80
26859 80
26860 80
26861 79
26862 77
26863 76
26864 76
26865 76
26866 75
26867 73
26868 72
26869 72
26870 72
26871 71
26872 69
26873 68
26874 68
26875 68
26876 67
26877 65
26878 64
26879 64
26880 64
26881 63
26882 61
26883 60
26884 60
26885 60
26886 59
26887 57
26888 56
26889 56
26890 56
26891 55
26892 53
26893 52
26894 52
26895 52
26896 51
26897 49
26898 48
26899 48
26900 48
26901 47
26902 45
26903 44
26904 44
26905 44
26906 43
26907 41
26908 40
26909 40
26910 40
26911 39
26912 37
26913 36
26914 36
26915 36
26916 35
26917 33
26918 32
26919 32
26920 32
26921 162
26922 160
26923 159
26924 159
26925 159
26926 158
26927 156
26928 155
26929 155
26930 155
26931 154
26932 152
26933 151
26934 151
26935 151
26936 150
26937 148
26938 147
26939 147
26940 147
26941 146
26942 145
26943 144
26944 144
26945 144
26946 144
26947 143
26948 142
26949 142
26950 142
26951 273
26952 272
26953 271
26954 271
26955 271
26956 271
26957 270
26958 269
26959 269
26960 269
26961 269
26962 268
26963 266
26964 265
26965 265
26966 265
26967 264
26968 262
26969 261
26970 261
26971 261
26972 260
26973 258
26974 257
26975 257
26976 257
26977 256
26978 255
26979 254
26980 254
26981 254
26982 254
26983 253
26984 252
26985 252
26986 252
26987 252
26988 251
26989 250
26990 250
26991 250
26992 250
26993 248
26994 246
26995 246
26996 246
26997 246
26998 244
26999 242
27000 242
27001 242
27002 242
27003 240
27004 238
27005 238
27006 238
27007 238
27008 236
27009 234
27010 234
27011 234
27012 234
27013 232
27014 230
27015 230
27016 230
27017 230
27018 228
27019 226
27020 226
27021 226
27022 226
27023 224
27024 222
27025 222
27026 222
27027 222
27028 220
27029 218
27030 218
27031 218
27032 218
27033 216
27034 214
27035 214
27036 214
27037 214
27038 212
27039 210
27040 210
27041 210
27042 210
27043 208
27044 206
27045 206
27046 206
27047 206
27048 204
27049 202
27050 202
27051 202
27052 202
27053 200
27054 198
27055 198
27056 198
27057 198
27058 196
27059 194
27060 194
27061 194
27062 194
27063 192
27064 190
27065 190
27066 190
27067 190
27068 188
27069 186
27070 186
27071 186
27072 186
27073 184
27074 182
27075 182
27076 182
27077 182
27078 180
27079 178
27080 178
27081 178
27082 178
27083 176
27084 174
27085 174
27086 174
27087 174
27088 172
27089 170
27090 170
27091 170
27092 170
27093 168
27094 166
