BEGIN Configuration File: examples/focusconfig
topology = mesh;
k = 16;
n = 2;

sim_type = throughput;

packet_size = 1;
warmup_periods = 3;
sample_period = 10000;
max_samples = 20;

burst_alpha = 0.5;
burst_beta = -1.0;

// Routing
routing_function = dim_order;

// Flow control

num_vcs = 8;
vc_buf_size = 4;

// Traffic
traffic = focus;
injection_process = focus;

END Configuration File: examples/focusconfig
Class 0:
Packet latency average = 21.6412
	minimum = 7
	maximum = 155
Network latency average = 21.6412
	minimum = 7
	maximum = 155
Slowest packet = 696
Flit latency average = 21.6412
	minimum = 7
	maximum = 155
Slowest flit = 696
Fragmentation average = 0
	minimum = 0
	maximum = 0
Injected packet rate average = 0.0272855
	minimum = 0 (at node 35)
	maximum = 1 (at node 238)
Accepted packet rate average = 0.0272488
	minimum = 0 (at node 1)
	maximum = 0.9979 (at node 255)
Injected flit rate average = 0.0272855
	minimum = 0 (at node 35)
	maximum = 1 (at node 238)
Accepted flit rate average= 0.0272488
	minimum = 0 (at node 1)
	maximum = 0.9979 (at node 255)
Injected packet length average = 1
Accepted packet length average = 1
Total in-flight flits = 94 (0 measured)
latency change    = 1
throughput change = 1
Class 0:
Packet latency average = 21.4467
	minimum = 7
	maximum = 155
Network latency average = 21.4467
	minimum = 7
	maximum = 155
Slowest packet = 696
Flit latency average = 21.4467
	minimum = 7
	maximum = 155
Slowest flit = 696
Fragmentation average = 0
	minimum = 0
	maximum = 0
Injected packet rate average = 0.0268822
	minimum = 0 (at node 59)
	maximum = 1 (at node 238)
Accepted packet rate average = 0.0268488
	minimum = 0 (at node 2)
	maximum = 0.99895 (at node 255)
Injected flit rate average = 0.0268822
	minimum = 0 (at node 59)
	maximum = 1 (at node 238)
Accepted flit rate average= 0.0268488
	minimum = 0 (at node 2)
	maximum = 0.99895 (at node 255)
Injected packet length average = 1
Accepted packet length average = 1
Total in-flight flits = 171 (0 measured)
latency change    = 0.00906719
throughput change = 0.0148982
Class 0:
Packet latency average = 21.2177
	minimum = 12
	maximum = 114
Network latency average = 21.2177
	minimum = 12
	maximum = 114
Slowest packet = 175976
Flit latency average = 21.2177
	minimum = 12
	maximum = 114
Slowest flit = 175976
Fragmentation average = 0
	minimum = 0
	maximum = 0
Injected packet rate average = 0.0239098
	minimum = 0 (at node 4)
	maximum = 0.358 (at node 223)
Accepted packet rate average = 0.0239422
	minimum = 0 (at node 1)
	maximum = 0.3606 (at node 149)
Injected flit rate average = 0.0239098
	minimum = 0 (at node 4)
	maximum = 0.358 (at node 223)
Accepted flit rate average= 0.0239422
	minimum = 0 (at node 1)
	maximum = 0.3606 (at node 149)
Injected packet length average = 1
Accepted packet length average = 1
Total in-flight flits = 88 (0 measured)
latency change    = 0.0107956
throughput change = 0.121402
Warmed up ...Time used is 30000 cycles
Class 0:
Packet latency average = 21.0262
	minimum = 7
	maximum = 105
Network latency average = 21.0262
	minimum = 7
	maximum = 105
Slowest packet = 234432
Flit latency average = 21.0427
	minimum = 7
	maximum = 105
Slowest flit = 234432
Fragmentation average = 0
	minimum = 0
	maximum = 0
Injected packet rate average = 0.0222547
	minimum = 0 (at node 4)
	maximum = 0.3354 (at node 163)
Accepted packet rate average = 0.0222523
	minimum = 0 (at node 9)
	maximum = 0.3545 (at node 191)
Injected flit rate average = 0.0222547
	minimum = 0 (at node 4)
	maximum = 0.3354 (at node 163)
Accepted flit rate average= 0.0222523
	minimum = 0 (at node 9)
	maximum = 0.3545 (at node 191)
Injected packet length average = 1
Accepted packet length average = 1
Total in-flight flits = 94 (94 measured)
latency change    = 0.00910694
throughput change = 0.07594
Class 0:
Packet latency average = 21.267
	minimum = 7
	maximum = 127
Network latency average = 21.267
	minimum = 7
	maximum = 127
Slowest packet = 310534
Flit latency average = 21.2751
	minimum = 7
	maximum = 127
Slowest flit = 310534
Fragmentation average = 0
	minimum = 0
	maximum = 0
Injected packet rate average = 0.0222814
	minimum = 0 (at node 4)
	maximum = 0.34545 (at node 163)
Accepted packet rate average = 0.0222699
	minimum = 0 (at node 9)
	maximum = 0.3512 (at node 179)
Injected flit rate average = 0.0222814
	minimum = 0 (at node 4)
	maximum = 0.34545 (at node 163)
Accepted flit rate average= 0.0222699
	minimum = 0 (at node 9)
	maximum = 0.3512 (at node 179)
Injected packet length average = 1
Accepted packet length average = 1
Total in-flight flits = 147 (147 measured)
latency change    = 0.011326
throughput change = 0.000789321
Class 0:
Packet latency average = 21.3401
	minimum = 7
	maximum = 127
Network latency average = 21.3401
	minimum = 7
	maximum = 127
Slowest packet = 310534
Flit latency average = 21.3454
	minimum = 7
	maximum = 127
Slowest flit = 310534
Fragmentation average = 0
	minimum = 0
	maximum = 0
Injected packet rate average = 0.0225363
	minimum = 0 (at node 4)
	maximum = 0.348267 (at node 163)
Accepted packet rate average = 0.0225329
	minimum = 0 (at node 14)
	maximum = 0.354967 (at node 179)
Injected flit rate average = 0.0225363
	minimum = 0 (at node 4)
	maximum = 0.348267 (at node 163)
Accepted flit rate average= 0.0225329
	minimum = 0 (at node 14)
	maximum = 0.354967 (at node 179)
Injected packet length average = 1
Accepted packet length average = 1
Total in-flight flits = 114 (114 measured)
latency change    = 0.00342468
throughput change = 0.0116727
Class 0:
Packet latency average = 21.3242
	minimum = 7
	maximum = 127
Network latency average = 21.3242
	minimum = 7
	maximum = 127
Slowest packet = 310534
Flit latency average = 21.3282
	minimum = 7
	maximum = 127
Slowest flit = 310534
Fragmentation average = 0
	minimum = 0
	maximum = 0
Injected packet rate average = 0.0226035
	minimum = 0 (at node 110)
	maximum = 0.335425 (at node 163)
Accepted packet rate average = 0.0226
	minimum = 0 (at node 14)
	maximum = 0.351575 (at node 191)
Injected flit rate average = 0.0226035
	minimum = 0 (at node 110)
	maximum = 0.335425 (at node 163)
Accepted flit rate average= 0.0226
	minimum = 0 (at node 14)
	maximum = 0.351575 (at node 191)
Injected packet length average = 1
Accepted packet length average = 1
Total in-flight flits = 124 (124 measured)
latency change    = 0.000746569
throughput change = 0.00296714
Draining remaining packets ...
Time taken is 70077 cycles
====== Overall Traffic Statistics ======
====== Traffic class 0 ======
Packet latency average = 21.3286 (1 samples)
	minimum = 7 (1 samples)
	maximum = 127 (1 samples)
Network latency average = 21.3286 (1 samples)
	minimum = 7 (1 samples)
	maximum = 127 (1 samples)
Flit latency average = 21.3326 (1 samples)
	minimum = 7 (1 samples)
	maximum = 127 (1 samples)
Fragmentation average = 0 (1 samples)
	minimum = 0 (1 samples)
	maximum = 0 (1 samples)
Injected packet rate average = 0.0226035 (1 samples)
	minimum = 0 (1 samples)
	maximum = 0.335425 (1 samples)
Accepted packet rate average = 0.0226 (1 samples)
	minimum = 0 (1 samples)
	maximum = 0.351575 (1 samples)
Injected flit rate average = 0.0226035 (1 samples)
	minimum = 0 (1 samples)
	maximum = 0.335425 (1 samples)
Accepted flit rate average = 0.0226 (1 samples)
	minimum = 0 (1 samples)
	maximum = 0.351575 (1 samples)
Injected packet size average = 1 (1 samples)
Accepted packet size average = 1 (1 samples)
Hops average = 3.70364 (1 samples)
Total run time 7.59885
