BEGIN Configuration File: examples/focusconfig
topology = mesh;
k = 16;
n = 2;

sim_type = throughput;

packet_size = 1;
warmup_periods = 1;
sample_period = 30000;
max_samples = 20;

burst_alpha = 0.5;
burst_beta = -1.0;

// Routing

// routing_function = dim_order;
// routing_function = min_adapt;
routing_function = xy_yx;
// routing_function = romm;


// Flow control

num_vcs = 8;
vc_buf_size = 4;

// Traffic
traffic = focus;
injection_process = focus;

END Configuration File: examples/focusconfig
Class 0:
Packet latency average = 73.9808
	minimum = 13
	maximum = 1069
Network latency average = 38.713
	minimum = 13
	maximum = 197
Slowest packet = 3
Flit latency average = 37.2043
	minimum = 9
	maximum = 136
Slowest flit = 41846
Fragmentation average = 1.37934
	minimum = 0
	maximum = 137
Injected packet rate average = 0.00236042
	minimum = 0 (at node 0)
	maximum = 0.108367 (at node 127)
Accepted packet rate average = 0.00235742
	minimum = 0 (at node 30)
	maximum = 0.0304333 (at node 31)
Injected flit rate average = 0.0123095
	minimum = 0 (at node 0)
	maximum = 0.6621 (at node 127)
Accepted flit rate average= 0.0122982
	minimum = 0 (at node 30)
	maximum = 0.0906 (at node 12)
Injected packet length average = 5.21497
Accepted packet length average = 5.21679
Total in-flight flits = 93 (0 measured)
latency change    = 1
throughput change = 1
Warmed up ...Time used is 30000 cycles
Class 0:
Packet latency average = 77.0255
	minimum = 13
	maximum = 1016
Network latency average = 40.4228
	minimum = 13
	maximum = 202
Slowest packet = 18130
Flit latency average = 38.995
	minimum = 9
	maximum = 136
Slowest flit = 168115
Fragmentation average = 1.42822
	minimum = 0
	maximum = 145
Injected packet rate average = 0.00212669
	minimum = 0 (at node 0)
	maximum = 0.109233 (at node 127)
Accepted packet rate average = 0.00212539
	minimum = 0 (at node 30)
	maximum = 0.0308667 (at node 31)
Injected flit rate average = 0.0113677
	minimum = 0 (at node 0)
	maximum = 0.668333 (at node 127)
Accepted flit rate average= 0.0113654
	minimum = 0 (at node 30)
	maximum = 0.0931667 (at node 143)
Injected packet length average = 5.34525
Accepted packet length average = 5.34742
Total in-flight flits = 109 (109 measured)
latency change    = 0.039529
throughput change = 0.082075
Class 0:
Packet latency average = 75.5386
	minimum = 13
	maximum = 1016
Network latency average = 40.4252
	minimum = 13
	maximum = 218
Slowest packet = 18130
Flit latency average = 39.067
	minimum = 9
	maximum = 145
Slowest flit = 266618
Fragmentation average = 1.38991
	minimum = 0
	maximum = 162
Injected packet rate average = 0.00212018
	minimum = 0 (at node 0)
	maximum = 0.1093 (at node 127)
Accepted packet rate average = 0.00212018
	minimum = 0 (at node 30)
	maximum = 0.0308833 (at node 31)
Injected flit rate average = 0.0113146
	minimum = 0 (at node 0)
	maximum = 0.668667 (at node 127)
Accepted flit rate average= 0.0113143
	minimum = 0 (at node 30)
	maximum = 0.0930667 (at node 143)
Injected packet length average = 5.33664
Accepted packet length average = 5.33649
Total in-flight flits = 96 (96 measured)
latency change    = 0.0196837
throughput change = 0.00451124
Class 0:
Packet latency average = 75.024
	minimum = 13
	maximum = 1016
Network latency average = 40.3801
	minimum = 13
	maximum = 218
Slowest packet = 18130
Flit latency average = 39.0523
	minimum = 9
	maximum = 145
Slowest flit = 266618
Fragmentation average = 1.35894
	minimum = 0
	maximum = 162
Injected packet rate average = 0.00211549
	minimum = 0 (at node 0)
	maximum = 0.109289 (at node 127)
Accepted packet rate average = 0.00211393
	minimum = 0 (at node 30)
	maximum = 0.0308778 (at node 31)
Injected flit rate average = 0.0112949
	minimum = 0 (at node 0)
	maximum = 0.668689 (at node 127)
Accepted flit rate average= 0.011285
	minimum = 0 (at node 30)
	maximum = 0.0929333 (at node 143)
Injected packet length average = 5.33914
Accepted packet length average = 5.33838
Total in-flight flits = 453 (453 measured)
latency change    = 0.00686006
throughput change = 0.00259994
Class 0:
Packet latency average = 74.8479
	minimum = 13
	maximum = 1016
Network latency average = 40.3989
	minimum = 13
	maximum = 218
Slowest packet = 18130
Flit latency average = 39.0956
	minimum = 9
	maximum = 145
Slowest flit = 266618
Fragmentation average = 1.36045
	minimum = 0
	maximum = 162
Injected packet rate average = 0.00211074
	minimum = 0 (at node 0)
	maximum = 0.109183 (at node 127)
Accepted packet rate average = 0.00211064
	minimum = 0 (at node 30)
	maximum = 0.0308667 (at node 31)
Injected flit rate average = 0.011252
	minimum = 0 (at node 0)
	maximum = 0.668417 (at node 127)
Accepted flit rate average= 0.0112519
	minimum = 0 (at node 30)
	maximum = 0.0925 (at node 143)
Injected packet length average = 5.33083
Accepted packet length average = 5.33104
Total in-flight flits = 91 (91 measured)
latency change    = 0.00235208
throughput change = 0.00293835
Draining remaining packets ...
Time taken is 150053 cycles
====== Overall Traffic Statistics ======
====== Traffic class 0 ======
Packet latency average = 74.839 (1 samples)
	minimum = 13 (1 samples)
	maximum = 1016 (1 samples)
Network latency average = 40.3988 (1 samples)
	minimum = 13 (1 samples)
	maximum = 218 (1 samples)
Flit latency average = 39.0959 (1 samples)
	minimum = 9 (1 samples)
	maximum = 145 (1 samples)
Fragmentation average = 1.36009 (1 samples)
	minimum = 0 (1 samples)
	maximum = 162 (1 samples)
Injected packet rate average = 0.00211074 (1 samples)
	minimum = 0 (1 samples)
	maximum = 0.109183 (1 samples)
Accepted packet rate average = 0.00211064 (1 samples)
	minimum = 0 (1 samples)
	maximum = 0.0308667 (1 samples)
Injected flit rate average = 0.011252 (1 samples)
	minimum = 0 (1 samples)
	maximum = 0.668417 (1 samples)
Accepted flit rate average = 0.0112519 (1 samples)
	minimum = 0 (1 samples)
	maximum = 0.0925 (1 samples)
Injected packet size average = 5.33083 (1 samples)
Accepted packet size average = 5.33104 (1 samples)
Hops average = 6.50691 (1 samples)
Total run time 71.6798
